/*---------------------------------------------------------------------------*\
| =========                 |                                                 |
| \\      /  F ield         | OpenFOAM: The Open Source CFD Toolbox           |
|  \\    /   O peration     | Version:  3.0.1                                 |
|   \\  /    A nd           | Web:      www.OpenFOAM.org                      |
|    \\/     M anipulation  |                                                 |
\*---------------------------------------------------------------------------*/
Build  : 3.0.1-d8a290b55d28
Exec   : waveFoam
Date   : Jun 13 2018
Time   : 11:53:26
Host   : "RN1"
PID    : 8750
Case   : /home/rn1/OpenFOAM/rn1-3.0.1/applications/utilities/waves2Foam/tutorials/waveFoam/testOCW
nProcs : 1
sigFpe : Enabling floating point exception trapping (FOAM_SIGFPE).
fileModificationChecking : Monitoring run-time modified files using timeStampMaster
allowSystemOperations : Allowing user-supplied system call operations

// * * * * * * * * * * * * * * * * * * * * * * * * * * * * * * * * * * * * * //
Create time

Create mesh for time = 0

// using new solver syntax:
pcorr
{
    solver          GAMG;
    tolerance       1e-07;
    relTol          0;
    smoother        DIC;
    nPreSweeps      0;
    nPostSweeps     2;
    nFinestSweeps   2;
    cacheAgglomeration true;
    nCellsInCoarsestLevel 10;
    agglomerator    faceAreaPair;
    mergeLevels     1;
}

// using new solver syntax:
p_rgh
{
    solver          GAMG;
    tolerance       1e-07;
    relTol          0;
    smoother        DIC;
    nPreSweeps      0;
    nPostSweeps     2;
    nFinestSweeps   2;
    cacheAgglomeration true;
    nCellsInCoarsestLevel 10;
    agglomerator    faceAreaPair;
    mergeLevels     1;
}

// using new solver syntax:
p_rghFinal
{
    solver          GAMG;
    tolerance       1e-08;
    relTol          0;
    smoother        DIC;
    nPreSweeps      0;
    nPostSweeps     2;
    nFinestSweeps   2;
    cacheAgglomeration true;
    nCellsInCoarsestLevel 10;
    agglomerator    faceAreaPair;
    mergeLevels     1;
}

// using new solver syntax:
U
{
    solver          PBiCG;
    preconditioner  DILU;
    tolerance       1e-09;
    relTol          0;
}

// using new solver syntax:
UFinal
{
    solver          PBiCG;
    preconditioner  DILU;
    tolerance       1e-09;
    relTol          0;
}

// using new solver syntax:
gamma
{
    solver          PBiCG;
    preconditioner  DILU;
    tolerance       1e-07;
    relTol          0;
}


PIMPLE: Operating solver in PISO mode


Reading g

Reading waveProperties

Reading waveProperties

*********************************************************
***                                                   ***
*** OceanWave3D - a coastal engineering tool for      ***
*** simulation of nonlinear free surface waves.       ***
*** Copyright (C) 2009 Allan P. Engsig-Karup.         ***
***                                                   ***
*** This OceanWave3D program comes with ABSOLUTELY NO ***
*** WARRANTY. It is distributed under the conditions  ***
*** of the GNU General Public License version 3.      ***
***                                                   ***
***     Software library developed in 2009 by         ***
***                                                   ***
***     Allan P. Engsig-Karup                         ***
***     Guillaume Ducrozet                            ***
***                                                   ***
*** At DTU Informatics                                ***
***    Scientific Computing Section                   ***
***    Technical University of Denmark                ***
***                                                   ***
***     Original software library written in 2007 by  ***
***                                                   ***
***     Allan P. Engsig-Karup                         ***
***     Harry B. Bingham                              ***
***                                                   ***
*** At Department of Mechanical Engineering           ***
***    Coastal, Maritime and Structural Eng. Section  ***
***    Technical University of Denmark                ***
***                                                   ***
*********************************************************

   Input file with model parameters : OceanWave3D.inp                         

   Header title.................... : Header                                                                  

   PARAMETER INPUT

   Initial Condition (IC), Predefined :   0

   Local filtering downward vertical acceleration limit is: ********
 * g m/s^2.  Theoretically breaking should occur between 0.5 and 1.


   Bathymetry                         : Predefined (in setup for IC)
   (Nx,Ny,Nz)=(  500,    1,   15)
   Size of dx: .8016E-01

   The problem is without a y-dimension.

   Uneven node-distribution in Z
   Ghost point layer included below bottom.

   Half-width stencils: (alpha,beta,gamma)=( 3, 0, 3)
   Half-width stencils: (alpha,beta,gamma)=( 1, 0, 1) (Preconditioner)
  
 Starting time for this run is    0.0000000000000000     
   Number of time steps chosen:    10000
   Size of time increment: .1000E-01
    Time-integration method: Classical Runge-Kutta fourth order
    GMRES method is chosen.
    Strategy: GMRES + LU (order            2 )
    Tolerance levels user-defined. RelTol =    1.0000000000000000E-008  and AbsTol =    9.9999999999999995E-007
 
   Fully nonlinear model is employed.

 No free-surface pressure term is being applied.  

    SG(          13 ,          10 )-filtering will be employed after every            1  time step.
  
 No breaking model line found, the feature is off.
  
     Total relaxation zones defined:            1
  
 Found            1  pressure damping zones.
   Standard Cartesian model employed.

 format type 1:           0
 FilterInit:  Boundary filtering is turned on with values:
   8.0000000000000002E-002   8.0000000000000002E-002  0.40000000000000002     
  
 Initializing variables and arrays.
 Relaxation zone setup:
  Zone  1: idx=(     2,    65,     1,     1)
   Relaxation zones have been setup.
      SF solution: k=   1.6729156711127393      ,h=  0.40000000000000002      ,H=  0.10000000000000001      ,T=   2.0000000000000000      ,L=   100.00000000000000     
                   kh=  0.66916626844509575      ,c=   50.000000000000000     
 The incident wave is a stream function wave with L=0.375583E+01
  T=0.200000E+01 H=0.100000E+00 u_E=-.156747E-01 and u_S=0.000000E+00


 setup ICs...
 IC chosen is case            0
 Initial condition is still water.
 done with ICs
  
 Pressure damping zone            1  will be applied from x=   30.060120240480963       to x=   40.000000000000000     
                                         and from y=   1.0000000000000000       to y=   1.0000000000000000     
  
  
 PreprocessPDampingZones:  Factoring the Laplacian matrix.
  
 Pressure damping zones are set up
  
   Preconditioner: DIRECT LU ( 2 order, linear)
 Building stencils...
   Preconditioning matrix generated.
 workspaceSize =       201151
 Determine finite difference stencils for the system matrix...
 Building stencils...
 ...done!
          -1
           1
          65           1   1.0070316158738990E-007   5.0501002004008013     
          66           1   2.8539727584542263E-006   5.1302605210420840     
          67           1   1.5290286459634927E-005   5.2104208416833666     
          68           1   4.7319601977791059E-005   5.2905811623246493     
          69           1   1.1100796073659769E-004   5.3707414829659319     
          70           1   2.2023781439217682E-004   5.4509018036072145     
          71           1   3.9049334241703093E-004   5.5310621242484972     
          72           1   6.3870823089884343E-004   5.6112224448897798     
          73           1   9.8315028149431605E-004   5.6913827655310625     
          74           1   1.4433299660311372E-003   5.7715430861723451     
          75           1   2.0399256101284458E-003   5.8517034068136278     
          76           1   2.7947206908276456E-003   5.9318637274549104     
          77           1   3.7305502869819929E-003   6.0120240480961931     
          78           1   4.8712546470921492E-003   6.0921843687374757     
          79           1   6.2416384226195998E-003   6.1723446893787575     
          80           1   7.8674344990351530E-003   6.2525050100200392     
          81           1   9.7752716193187927E-003   6.3326653306613228     
          82           1   1.1992645179461303E-002   6.4128256513026045     
          83           1   1.4547890709087019E-002   6.4929859719438880     
          84           1   1.7470159649013106E-002   6.5731462925851698     
          85           1   2.0789397111921182E-002   6.6533066132264533     
          86           1   2.4536321369286185E-002   6.7334669338677351     
          87           1   2.8742404852033276E-002   6.8136272545090186     
          88           1   3.3439856487333608E-002   6.8937875751503004     
          89           1   3.8661605221831485E-002   6.9739478957915839     
          90           1   4.4441284604086917E-002   7.0541082164328657     
          91           1   5.0813218317344311E-002   7.1342685370741492     
          92           1   5.7812406568792052E-002   7.2144288577154310     
          93           1   6.5474513253973243E-002   7.2945891783567127     
          94           1   7.3835853825422570E-002   7.3747494989979954     
          95           1   8.2933383803378335E-002   7.4549098196392780     
          96           1   9.2804687873837666E-002   7.5350701402805607     
          97           1  0.10348796952554196        7.6152304609218433     
          98           1  0.11502204118288972        7.6953907815631259     
          99           1  0.12744631479643154        7.7755511022044086     
         100           1  0.14080079285662883        7.8557114228456912     
         101           1  0.15512605980005789        7.9358717434869739     
         102           1  0.17046327378029635        8.0160320641282574     
         103           1  0.18685415877839751        8.0961923847695392     
         104           1  0.20434099703022202        8.1763527054108227     
         105           1  0.22296662174995829        8.2565130260521045     
         106           1  0.24277441013101697        8.3366733466933862     
         107           1  0.26380827660710393        8.4168336673346680     
         108           1  0.28611266635774379        8.4969939879759515     
         109           1  0.30973254904381431        8.5771543086172350     
         110           1  0.33471341275983457        8.6573146292585168     
         111           1  0.36110125819078054        8.7374749498997986     
         112           1  0.38894259296215172        8.8176352705410821     
         113           1  0.41828442617286510        8.8977955911823656     
         114           1  0.44917426310132647        8.9779559118236474     
         115           1  0.48166010007572235        9.0581162324649291     
         116           1  0.51579041950020899        9.1382765531062127     
         117           1  0.55161418502925874        9.2184368737474962     
         118           1  0.58918083688295753        9.2985971943887780     
         119           1  0.62854028729651623        9.3787575150300597     
         120           1  0.66974291609770320        9.4589178356713415     
         121           1  0.71283956640632118        9.5390781563126250     
         122           1  0.75788154045021094        9.6192384769539068     
         123           1  0.80492059549261863        9.6993987975951903     
         124           1  0.85400893986606041        9.7795591182364721     
         125           1  0.90519922910813855        9.8597194388777556     
         126           1  0.95854456219499440        9.9398797595190373     
         127           1   1.0000000000000000        10.020040080160319     
         128           1   1.0000000000000000        10.100200400801603     
         129           1   1.0000000000000000        10.180360721442884     
         130           1   1.0000000000000000        10.260521042084168     
         131           1   1.0000000000000000        10.340681362725450     
         132           1   1.0000000000000000        10.420841683366733     
         133           1   1.0000000000000000        10.501002004008015     
         134           1   1.0000000000000000        10.581162324649299     
         135           1   1.0000000000000000        10.661322645290580     
         136           1   1.0000000000000000        10.741482965931864     
         137           1   1.0000000000000000        10.821643286573146     
         138           1   1.0000000000000000        10.901803607214429     
         139           1   1.0000000000000000        10.981963927855711     
         140           1   1.0000000000000000        11.062124248496994     
         141           1   1.0000000000000000        11.142284569138276     
         142           1   1.0000000000000000        11.222444889779560     
         143           1   1.0000000000000000        11.302605210420841     
         144           1   1.0000000000000000        11.382765531062125     
         145           1   1.0000000000000000        11.462925851703407     
         146           1   1.0000000000000000        11.543086172344690     
         147           1   1.0000000000000000        11.623246492985972     
         148           1   1.0000000000000000        11.703406813627256     
         149           1   1.0000000000000000        11.783567134268537     
         150           1   1.0000000000000000        11.863727454909821     
         151           1   1.0000000000000000        11.943887775551103     
         152           1   1.0000000000000000        12.024048096192386     
         153           1   1.0000000000000000        12.104208416833668     
         154           1   1.0000000000000000        12.184368737474951     
         155           1   1.0000000000000000        12.264529058116231     
         156           1   1.0000000000000000        12.344689378757515     
         157           1   1.0000000000000000        12.424849699398797     
         158           1   1.0000000000000000        12.505010020040078     
         159           1   1.0000000000000000        12.585170340681362     
         160           1   1.0000000000000000        12.665330661322646     
         161           1   1.0000000000000000        12.745490981963927     
         162           1   1.0000000000000000        12.825651302605209     
         163           1   1.0000000000000000        12.905811623246493     
         164           1   1.0000000000000000        12.985971943887776     
         165           1   1.0000000000000000        13.066132264529058     
         166           1   1.0000000000000000        13.146292585170340     
         167           1   1.0000000000000000        13.226452905811623     
         168           1   1.0000000000000000        13.306613226452907     
         169           1   1.0000000000000000        13.386773547094188     
         170           1   1.0000000000000000        13.466933867735470     
         171           1   1.0000000000000000        13.547094188376754     
         172           1   1.0000000000000000        13.627254509018037     
         173           1   1.0000000000000000        13.707414829659319     
         174           1   1.0000000000000000        13.787575150300601     
         175           1   1.0000000000000000        13.867735470941884     
         176           1   1.0000000000000000        13.947895791583168     
         177           1   1.0000000000000000        14.028056112224450     
         178           1   1.0000000000000000        14.108216432865731     
         179           1   1.0000000000000000        14.188376753507015     
         180           1   1.0000000000000000        14.268537074148298     
         181           1   1.0000000000000000        14.348697394789580     
         182           1   1.0000000000000000        14.428857715430862     
         183           1   1.0000000000000000        14.509018036072144     
         184           1   1.0000000000000000        14.589178356713425     
         185           1   1.0000000000000000        14.669338677354709     
         186           1   1.0000000000000000        14.749498997995991     
         187           1   1.0000000000000000        14.829659318637274     
         188           1   1.0000000000000000        14.909819639278556     
         189           1   1.0000000000000000        14.989979959919840     
         190           1   1.0000000000000000        15.070140280561121     
         191           1   1.0000000000000000        15.150300601202405     
         192           1   1.0000000000000000        15.230460921843687     
         193           1   1.0000000000000000        15.310621242484970     
         194           1   1.0000000000000000        15.390781563126252     
         195           1   1.0000000000000000        15.470941883767535     
         196           1   1.0000000000000000        15.551102204408817     
         197           1   1.0000000000000000        15.631262525050101     
         198           1   1.0000000000000000        15.711422845691382     
         199           1   1.0000000000000000        15.791583166332666     
         200           1   1.0000000000000000        15.871743486973948     
         201           1   1.0000000000000000        15.951903807615231     
         202           1   1.0000000000000000        16.032064128256515     
         203           1   1.0000000000000000        16.112224448897795     
         204           1   1.0000000000000000        16.192384769539078     
         205           1   1.0000000000000000        16.272545090180362     
         206           1   1.0000000000000000        16.352705410821645     
         207           1   1.0000000000000000        16.432865731462925     
         208           1   1.0000000000000000        16.513026052104209     
         209           1   1.0000000000000000        16.593186372745492     
         210           1   1.0000000000000000        16.673346693386772     
         211           1   1.0000000000000000        16.753507014028056     
         212           1   1.0000000000000000        16.833667334669336     
         213           1   1.0000000000000000        16.913827655310619     
         214           1   1.0000000000000000        16.993987975951903     
         215           1   1.0000000000000000        17.074148296593187     
         216           1   1.0000000000000000        17.154308617234470     
         217           1   1.0000000000000000        17.234468937875750     
         218           1   1.0000000000000000        17.314629258517034     
         219           1   1.0000000000000000        17.394789579158317     
         220           1   1.0000000000000000        17.474949899799597     
         221           1   1.0000000000000000        17.555110220440881     
         222           1   1.0000000000000000        17.635270541082164     
         223           1   1.0000000000000000        17.715430861723448     
         224           1   1.0000000000000000        17.795591182364731     
         225           1   1.0000000000000000        17.875751503006011     
         226           1   1.0000000000000000        17.955911823647295     
         227           1  0.99999996810615766        18.036072144288578     
         228           1  0.99999808463718121        18.116232464929858     
         229           1  0.99998798996314642        18.196392785571142     
         230           1  0.99996020487460147        18.276553106212425     
         231           1  0.99990301086563849        18.356713426853709     
         232           1  0.99980282547523214        18.436873747494992     
         233           1  0.99964443250999035        18.517034068136272     
         234           1  0.99941114278666343        18.597194388777556     
         235           1  0.99908491481115447        18.677354709418839     
         236           1  0.99864644977754713        18.757515030060119     
         237           1  0.99807526891058918        18.837675350701403     
         238           1  0.99734977804066005        18.917835671342683     
         239           1  0.99644732258752267        18.997995991983966     
         240           1  0.99534423511987691        19.078156312625250     
         241           1  0.99401587702745497        19.158316633266534     
         242           1  0.99243667543021463        19.238476953907814     
         243           1  0.99058015616927941        19.318637274549097     
         244           1  0.98841897352813690        19.398797595190381     
         245           1  0.98592493719146201        19.478957915831664     
         246           1  0.98306903684502023        19.559118236472944     
         247           1  0.97982146474207377        19.639278557114228     
         248           1  0.97615163650208914        19.719438877755511     
         249           1  0.97202821036127696        19.799599198396795     
         250           1  0.96741910505810269        19.879759519038075     
         251           1  0.96229151650792488        19.959919839679358     
         252           1  0.95661193339758421        20.040080160320638     
         253           1  0.95034615181177795        20.120240480961922     
         254           1  0.94345928898749121        20.200400801603205     
         255           1  0.93591579627984678        20.280561122244485     
         256           1  0.92767947141199048        20.360721442885769     
         257           1  0.91871347007259985        20.440881763527052     
         258           1  0.90898031691695069        20.521042084168336     
         259           1  0.89844191602099899        20.601202404809619     
         260           1  0.88705956083236448        20.681362725450899     
         261           1  0.87479394365732666        20.761523046092183     
         262           1  0.86160516471882298        20.841683366733466     
         263           1  0.84745274081683519        20.921843687374746     
         264           1  0.83229561361943960        21.002004008016030     
         265           1  0.81609215761005793        21.082164328657313     
         266           1  0.79880018771402894        21.162324649298597     
         267           1  0.78037696662551093        21.242484969939881     
         268           1  0.76077921185384656        21.322645290581161     
         269           1  0.73996310250684150        21.402805611222444     
         270           1  0.71788428582694919        21.482965931863728     
         271           1  0.69449788349499442        21.563126252505008     
         272           1  0.66975849771490625        21.643286573146291     
         273           1  0.64362021709185979        21.723446893787575     
         274           1  0.61603662231525147        21.803607214428858     
OF-time: 0
OCW-time: 0
Interval: [5, 20]
Identical starting times for OceanWave3D and OpenFoam
Reading field p_rgh

Reading field U

Reading/calculating face flux field phi

Reading transportProperties

Selecting incompressible transport model Newtonian
Selecting incompressible transport model Newtonian
Selecting turbulence model type laminar
No MRF models present

No finite volume options present

GAMG:  Solving for pcorr, Initial residual = 1.31981e-291, Final residual = 1.31981e-291, No Iterations 0
GAMG:  Solving for pcorr, Initial residual = 1.31981e-291, Final residual = 1.31981e-291, No Iterations 0
time step continuity errors : sum local = 1.22205e-314, global = -6.1102e-315, cumulative = -6.1102e-315
Courant Number mean: 3.2658e-312 max: 3.27228e-312

Starting time loop

Courant Number mean: 3.2658e-312 max: 3.27228e-312
Interface Courant Number mean: 0 max: 0
deltaT = 0.0011976
Time = 0.0011976

oceanWave3D: Time = 0.00262784 s.
oceanWave3D: deltaT = 0.00143023 s.

oceanWave3D: Time = 0.00432932 s.
oceanWave3D: deltaT = 0.00170148 s.

oceanWave3D: Time = 0.00636756 s.
oceanWave3D: deltaT = 0.00203824 s.

oceanWave3D: Time = 0.00878796 s.
oceanWave3D: deltaT = 0.00242041 s.

oceanWave3D: Time = 0.0116851 s.
oceanWave3D: deltaT = 0.00289715 s.

oceanWave3D: Time = 0.015109 s.
oceanWave3D: deltaT = 0.00342391 s.

oceanWave3D: Time = 0.0191284 s.
oceanWave3D: deltaT = 0.00401937 s.

oceanWave3D: Time = 0.0238882 s.
oceanWave3D: deltaT = 0.00475978 s.

         275           1  0.58696079165707904        21.883767535070142     
         276           1  0.55634530629551471        21.963927855711422     
         277           1  0.52414225547272930        22.044088176352705     
         278           1  0.49030324149541915        22.124248496993989     
         279           1  0.45477938458584510        22.204408817635269     
         280           1  0.41752132759070038        22.284569138276552     
         281           1  0.37847924055462967        22.364729458917836     
         282           1  0.33760282516474172        22.444889779559119     
         283           1  0.29484131907208122        22.525050100200403     
         284           1  0.25014350009563824        22.605210420841683     
         285           1  0.20345769031410299        22.685370741482966     
         286           1  0.15473176005031153        22.765531062124250     
         287           1  0.10391313175294958        22.845691382765530     
         288           1   5.0948783779879658E-002   22.925851703406813     
    ITERATIVE SOLVER WORKSPACE SIZE =       201151
 A total of       28 GMRES iterations done.
 A total of       14 GMRES iterations done in first time step.
 An average of     7.00 GMRES iterations done per solve.
   Minimum no.        1 and maximum no.        6 iterations per solve
 A total of       42 GMRES iterations done.
 A total of       14 GMRES iterations done in first time step.
 An average of     5.25 GMRES iterations done per solve.
   Minimum no.        1 and maximum no.        6 iterations per solve
 An average of     7.00 GMRES iterations done per solve excluding first time step iteration counts.
   Minimum no.        1 and maximum no.        6 iterations per solve excluding first time step solves
 A total of       57 GMRES iterations done.
 A total of       14 GMRES iterations done in first time step.
 An average of     4.75 GMRES iterations done per solve.
   Minimum no.        1 and maximum no.        7 iterations per solve
 An average of     5.38 GMRES iterations done per solve excluding first time step iteration counts.
   Minimum no.        1 and maximum no.        7 iterations per solve excluding first time step solves
 A total of       72 GMRES iterations done.
 A total of       14 GMRES iterations done in first time step.
 An average of     4.50 GMRES iterations done per solve.
   Minimum no.        1 and maximum no.        7 iterations per solve
 An average of     4.83 GMRES iterations done per solve excluding first time step iteration counts.
   Minimum no.        1 and maximum no.        7 iterations per solve excluding first time step solves
 A total of       89 GMRES iterations done.
 A total of       14 GMRES iterations done in first time step.
 An average of     4.45 GMRES iterations done per solve.
   Minimum no.        1 and maximum no.        7 iterations per solve
 An average of     4.69 GMRES iterations done per solve excluding first time step iteration counts.
   Minimum no.        1 and maximum no.        7 iterations per solve excluding first time step solves
 A total of      106 GMRES iterations done.
 A total of       14 GMRES iterations done in first time step.
 An average of     4.42 GMRES iterations done per solve.
   Minimum no.        1 and maximum no.        7 iterations per solve
 An average of     4.60 GMRES iterations done per solve excluding first time step iteration counts.
   Minimum no.        1 and maximum no.        7 iterations per solve excluding first time step solves
 A total of      123 GMRES iterations done.
 A total of       14 GMRES iterations done in first time step.
 An average of     4.39 GMRES iterations done per solve.
   Minimum no.        1 and maximum no.        7 iterations per solve
 An average of     4.54 GMRES iterations done per solve excluding first time step iteration counts.
   Minimum no.        1 and maximum no.        7 iterations per solve excluding first time step solves
 A total of      141 GMRES iterations done.
 A total of       14 GMRES iterations done in first time step.
 An average of     4.41 GMRES iterations done per solve.
oceanWave3D: Time = 0.0295692 s.
oceanWave3D: deltaT = 0.00568103 s.

oceanWave3D: Time = 0.0361242 s.
oceanWave3D: deltaT = 0.00655503 s.

oceanWave3D: Time = 0.0439278 s.
oceanWave3D: deltaT = 0.00780361 s.

oceanWave3D: Time = 0.0531086 s.
oceanWave3D: deltaT = 0.00918072 s.

oceanWave3D: Time = 0.0629013 s.
oceanWave3D: deltaT = 0.00979276 s.

oceanWave3D: Time = 0.0726941 s.
oceanWave3D: deltaT = 0.00979276 s.

oceanWave3D: Time = 0.0824868 s.
oceanWave3D: deltaT = 0.00979276 s.

oceanWave3D: Time = 0.0922796 s.
oceanWave3D: deltaT = 0.00979276 s.

oceanWave3D: Time = 0.102072 s.
oceanWave3D: deltaT = 0.00979276 s.

oceanWave3D: Time = 0.111865 s.
oceanWave3D: deltaT = 0.00979276 s.

oceanWave3D: Time = 0.121658 s.
oceanWave3D: deltaT = 0.00979276 s.

oceanWave3D: Time = 0.131451 s.
oceanWave3D: deltaT = 0.00979276 s.

oceanWave3D: Time = 0.141243 s.
oceanWave3D: deltaT = 0.00979276 s.

oceanWave3D: Time = 0.151036 s.
oceanWave3D: deltaT = 0.00979276 s.

oceanWave3D: Time = 0.160829 s.
oceanWave3D: deltaT = 0.00979276 s.

oceanWave3D: Time = 0.170622 s.
oceanWave3D: deltaT = 0.00979276 s.

oceanWave3D: Time = 0.180414 s.
oceanWave3D: deltaT = 0.00979276 s.

oceanWave3D: Time = 0.190207 s.
oceanWave3D: deltaT = 0.00979276 s.

oceanWave3D: Time = 0.2 s.
oceanWave3D: deltaT = 0.00979276 s.

oceanWave3D: Time = 0.209524 s.
oceanWave3D: deltaT = 0.00952381 s.

oceanWave3D: Time = 0.219048 s.
oceanWave3D: deltaT = 0.00952381 s.

oceanWave3D: Time = 0.228571 s.
oceanWave3D: deltaT = 0.00952381 s.

oceanWave3D: Time = 0.238095 s.
oceanWave3D: deltaT = 0.00952381 s.

oceanWave3D: Time = 0.247619 s.
oceanWave3D: deltaT = 0.00952381 s.

oceanWave3D: Time = 0.257143 s.
oceanWave3D: deltaT = 0.00952381 s.

oceanWave3D: Time = 0.266667 s.
oceanWave3D: deltaT = 0.00952381 s.

oceanWave3D: Time = 0.27619 s.
oceanWave3D: deltaT = 0.00952381 s.

oceanWave3D: Time = 0.285714 s.
oceanWave3D: deltaT = 0.00952381 s.

oceanWave3D: Time = 0.295238 s.
oceanWave3D: deltaT = 0.00952381 s.

oceanWave3D: Time = 0.304762 s.
oceanWave3D: deltaT = 0.00952381 s.

oceanWave3D: Time = 0.314286 s.
oceanWave3D: deltaT = 0.00952381 s.

oceanWave3D: Time = 0.32381 s.
oceanWave3D: deltaT = 0.00952381 s.

oceanWave3D: Time = 0.333333 s.
oceanWave3D: deltaT = 0.00952381 s.

oceanWave3D: Time = 0.342857 s.
oceanWave3D: deltaT = 0.00952381 s.

oceanWave3D: Time = 0.352381 s.
oceanWave3D: deltaT = 0.00952381 s.

oceanWave3D: Time = 0.361905 s.
oceanWave3D: deltaT = 0.00952381 s.

oceanWave3D: Time = 0.371429 s.
oceanWave3D: deltaT = 0.00952381 s.

oceanWave3D: Time = 0.380952 s.
oceanWave3D: deltaT = 0.00952381 s.

oceanWave3D: Time = 0.390476 s.
oceanWave3D: deltaT = 0.00952381 s.

oceanWave3D: Time = 0.4 s.
oceanWave3D: deltaT = 0.00952381 s.

oceanWave3D: Time = 0.409524 s.
oceanWave3D: deltaT = 0.00952381 s.

oceanWave3D: Time = 0.419048 s.
oceanWave3D: deltaT = 0.00952381 s.

oceanWave3D: Time = 0.428571 s.
oceanWave3D: deltaT = 0.00952381 s.

oceanWave3D: Time = 0.438095 s.
oceanWave3D: deltaT = 0.00952381 s.

oceanWave3D: Time = 0.447619 s.
oceanWave3D: deltaT = 0.00952381 s.

oceanWave3D: Time = 0.457143 s.
oceanWave3D: deltaT = 0.00952381 s.

oceanWave3D: Time = 0.466667 s.
oceanWave3D: deltaT = 0.00952381 s.

oceanWave3D: Time = 0.47619 s.
oceanWave3D: deltaT = 0.00952381 s.

oceanWave3D: Time = 0.485714 s.
oceanWave3D: deltaT = 0.00952381 s.

oceanWave3D: Time = 0.495238 s.
oceanWave3D: deltaT = 0.00952381 s.

oceanWave3D: Time = 0.504762 s.
oceanWave3D: deltaT = 0.00952381 s.

oceanWave3D: Time = 0.514286 s.
oceanWave3D: deltaT = 0.00952381 s.

oceanWave3D: Time = 0.52381 s.
oceanWave3D: deltaT = 0.00952381 s.

oceanWave3D: Time = 0.533333 s.
oceanWave3D: deltaT = 0.00952381 s.

oceanWave3D: Time = 0.542857 s.
oceanWave3D: deltaT = 0.00952381 s.

oceanWave3D: Time = 0.552381 s.
oceanWave3D: deltaT = 0.00952381 s.

oceanWave3D: Time = 0.561905 s.
oceanWave3D: deltaT = 0.00952381 s.

oceanWave3D: Time = 0.571429 s.
oceanWave3D: deltaT = 0.00952381 s.

oceanWave3D: Time = 0.580952 s.
oceanWave3D: deltaT = 0.00952381 s.

oceanWave3D: Time = 0.590476 s.
oceanWave3D: deltaT = 0.00952381 s.

oceanWave3D: Time = 0.6 s.
oceanWave3D: deltaT = 0.00952381 s.

oceanWave3D: Time = 0.61 s.
oceanWave3D: deltaT = 0.01 s.

oceanWave3D: Time = 0.62 s.
oceanWave3D: deltaT = 0.01 s.

oceanWave3D: Time = 0.63 s.
oceanWave3D: deltaT = 0.01 s.

oceanWave3D: Time = 0.64 s.
oceanWave3D: deltaT = 0.01 s.

oceanWave3D: Time = 0.65 s.
oceanWave3D: deltaT = 0.01 s.

oceanWave3D: Time = 0.66 s.
oceanWave3D: deltaT = 0.01 s.

oceanWave3D: Time = 0.67 s.
oceanWave3D: deltaT = 0.01 s.

oceanWave3D: Time = 0.68 s.
oceanWave3D: deltaT = 0.01 s.

oceanWave3D: Time = 0.69 s.
oceanWave3D: deltaT = 0.01 s.

oceanWave3D: Time = 0.7 s.
oceanWave3D: deltaT = 0.01 s.

oceanWave3D: Time = 0.71 s.
oceanWave3D: deltaT = 0.01 s.

oceanWave3D: Time = 0.72 s.
oceanWave3D: deltaT = 0.01 s.

oceanWave3D: Time = 0.73 s.
oceanWave3D: deltaT = 0.01 s.

oceanWave3D: Time = 0.74 s.
oceanWave3D: deltaT = 0.01 s.

oceanWave3D: Time = 0.75 s.
oceanWave3D: deltaT = 0.01 s.

oceanWave3D: Time = 0.76 s.
oceanWave3D: deltaT = 0.01 s.

oceanWave3D: Time = 0.77 s.
oceanWave3D: deltaT = 0.01 s.

oceanWave3D: Time = 0.78 s.
oceanWave3D: deltaT = 0.01 s.

oceanWave3D: Time = 0.79 s.
oceanWave3D: deltaT = 0.01 s.

oceanWave3D: Time = 0.8 s.
oceanWave3D: deltaT = 0.01 s.

oceanWave3D: Time = 0.81 s.
oceanWave3D: deltaT = 0.01 s.

oceanWave3D: Time = 0.82 s.
oceanWave3D: deltaT = 0.01 s.

oceanWave3D: Time = 0.83 s.
oceanWave3D: deltaT = 0.01 s.

oceanWave3D: Time = 0.84 s.
oceanWave3D: deltaT = 0.01 s.

oceanWave3D: Time = 0.85 s.
oceanWave3D: deltaT = 0.01 s.

oceanWave3D: Time = 0.86 s.
oceanWave3D: deltaT = 0.01 s.

oceanWave3D: Time = 0.87 s.
oceanWave3D: deltaT = 0.01 s.

oceanWave3D: Time = 0.88 s.
oceanWave3D: deltaT = 0.01 s.

oceanWave3D: Time = 0.89 s.
oceanWave3D: deltaT = 0.01 s.

oceanWave3D: Time = 0.9 s.
oceanWave3D: deltaT = 0.01 s.

oceanWave3D: Time = 0.91 s.
oceanWave3D: deltaT = 0.01 s.

oceanWave3D: Time = 0.92 s.
oceanWave3D: deltaT = 0.01 s.

oceanWave3D: Time = 0.93 s.
oceanWave3D: deltaT = 0.01 s.

oceanWave3D: Time = 0.94 s.
oceanWave3D: deltaT = 0.01 s.

oceanWave3D: Time = 0.95 s.
oceanWave3D: deltaT = 0.01 s.

oceanWave3D: Time = 0.96 s.
oceanWave3D: deltaT = 0.01 s.

oceanWave3D: Time = 0.97 s.
oceanWave3D: deltaT = 0.01 s.

oceanWave3D: Time = 0.98 s.
oceanWave3D: deltaT = 0.01 s.

oceanWave3D: Time = 0.99 s.
oceanWave3D: deltaT = 0.01 s.

oceanWave3D: Time = 1 s.
oceanWave3D: deltaT = 0.01 s.

oceanWave3D: Time = 1.00952 s.
oceanWave3D: deltaT = 0.00952381 s.

oceanWave3D: Time = 1.01905 s.
oceanWave3D: deltaT = 0.00952381 s.

oceanWave3D: Time = 1.02857 s.
oceanWave3D: deltaT = 0.00952381 s.

oceanWave3D: Time = 1.0381 s.
oceanWave3D: deltaT = 0.00952381 s.

oceanWave3D: Time = 1.04762 s.
oceanWave3D: deltaT = 0.00952381 s.

oceanWave3D: Time = 1.05714 s.
oceanWave3D: deltaT = 0.00952381 s.

oceanWave3D: Time = 1.06667 s.
oceanWave3D: deltaT = 0.00952381 s.

oceanWave3D: Time = 1.07619 s.
oceanWave3D: deltaT = 0.00952381 s.

oceanWave3D: Time = 1.08571 s.
oceanWave3D: deltaT = 0.00952381 s.

oceanWave3D: Time = 1.09524 s.
oceanWave3D: deltaT = 0.00952381 s.

oceanWave3D: Time = 1.10476 s.
oceanWave3D: deltaT = 0.00952381 s.

oceanWave3D: Time = 1.11429 s.
oceanWave3D: deltaT = 0.00952381 s.

oceanWave3D: Time = 1.12381 s.
oceanWave3D: deltaT = 0.00952381 s.

oceanWave3D: Time = 1.13333 s.
oceanWave3D: deltaT = 0.00952381 s.

oceanWave3D: Time = 1.14286 s.
oceanWave3D: deltaT = 0.00952381 s.

oceanWave3D: Time = 1.15238 s.
oceanWave3D: deltaT = 0.00952381 s.

oceanWave3D: Time = 1.1619 s.
oceanWave3D: deltaT = 0.00952381 s.

oceanWave3D: Time = 1.17143 s.
oceanWave3D: deltaT = 0.00952381 s.

oceanWave3D: Time = 1.18095 s.
oceanWave3D: deltaT = 0.00952381 s.

oceanWave3D: Time = 1.19048 s.
oceanWave3D: deltaT = 0.00952381 s.

oceanWave3D: Time = 1.2 s.
oceanWave3D: deltaT = 0.00952381 s.

oceanWave3D: Time = 1.21 s.
oceanWave3D: deltaT = 0.01 s.

oceanWave3D: Time = 1.22 s.
oceanWave3D: deltaT = 0.01 s.

oceanWave3D: Time = 1.23 s.
oceanWave3D: deltaT = 0.01 s.

oceanWave3D: Time = 1.24 s.
oceanWave3D: deltaT = 0.01 s.

oceanWave3D: Time = 1.25 s.
oceanWave3D: deltaT = 0.01 s.

oceanWave3D: Time = 1.26 s.
oceanWave3D: deltaT = 0.01 s.

oceanWave3D: Time = 1.27 s.
oceanWave3D: deltaT = 0.01 s.

oceanWave3D: Time = 1.28 s.
oceanWave3D: deltaT = 0.01 s.

oceanWave3D: Time = 1.29 s.
oceanWave3D: deltaT = 0.01 s.

oceanWave3D: Time = 1.3 s.
oceanWave3D: deltaT = 0.01 s.

oceanWave3D: Time = 1.31 s.
oceanWave3D: deltaT = 0.01 s.

oceanWave3D: Time = 1.32 s.
oceanWave3D: deltaT = 0.01 s.

oceanWave3D: Time = 1.33 s.
oceanWave3D: deltaT = 0.01 s.

oceanWave3D: Time = 1.34 s.
oceanWave3D: deltaT = 0.01 s.

oceanWave3D: Time = 1.35 s.
oceanWave3D: deltaT = 0.01 s.

oceanWave3D: Time = 1.36 s.
oceanWave3D: deltaT = 0.01 s.

oceanWave3D: Time = 1.37 s.
oceanWave3D: deltaT = 0.01 s.

oceanWave3D: Time = 1.38 s.
oceanWave3D: deltaT = 0.01 s.

oceanWave3D: Time = 1.39 s.
oceanWave3D: deltaT = 0.01 s.

oceanWave3D: Time = 1.4 s.
oceanWave3D: deltaT = 0.01 s.

oceanWave3D: Time = 1.41 s.
oceanWave3D: deltaT = 0.01 s.

oceanWave3D: Time = 1.42 s.
oceanWave3D: deltaT = 0.01 s.

oceanWave3D: Time = 1.43 s.
oceanWave3D: deltaT = 0.01 s.

oceanWave3D: Time = 1.44 s.
oceanWave3D: deltaT = 0.01 s.

oceanWave3D: Time = 1.45 s.
oceanWave3D: deltaT = 0.01 s.

oceanWave3D: Time = 1.46 s.
oceanWave3D: deltaT = 0.01 s.

oceanWave3D: Time = 1.47 s.
oceanWave3D: deltaT = 0.01 s.

oceanWave3D: Time = 1.48 s.
oceanWave3D: deltaT = 0.01 s.

oceanWave3D: Time = 1.49 s.
oceanWave3D: deltaT = 0.01 s.

oceanWave3D: Time = 1.5 s.
oceanWave3D: deltaT = 0.01 s.

oceanWave3D: Time = 1.51 s.
oceanWave3D: deltaT = 0.01 s.

oceanWave3D: Time = 1.52 s.
oceanWave3D: deltaT = 0.01 s.

oceanWave3D: Time = 1.53 s.
oceanWave3D: deltaT = 0.01 s.

oceanWave3D: Time = 1.54 s.
oceanWave3D: deltaT = 0.01 s.

oceanWave3D: Time = 1.55 s.
oceanWave3D: deltaT = 0.01 s.

oceanWave3D: Time = 1.56 s.
oceanWave3D: deltaT = 0.01 s.

oceanWave3D: Time = 1.57 s.
oceanWave3D: deltaT = 0.01 s.

oceanWave3D: Time = 1.58 s.
oceanWave3D: deltaT = 0.01 s.

oceanWave3D: Time = 1.59 s.
oceanWave3D: deltaT = 0.01 s.

   Minimum no.        1 and maximum no.        8 iterations per solve
 An average of     4.54 GMRES iterations done per solve excluding first time step iteration counts.
   Minimum no.        1 and maximum no.        8 iterations per solve excluding first time step solves
   Loop no.       10   Time =    0.0239 sec.
 time step number           10  t=   2.9569197777794341E-002
 An average of     4.47 GMRES iterations done per solve.
   Minimum no.        1 and maximum no.        8 iterations per solve
   Loop no.       20   Time =    0.1119 sec.
 time step number           20  t=  0.12165789454700021     
 An average of     5.26 GMRES iterations done per solve.
   Minimum no.        1 and maximum no.        9 iterations per solve
   Loop no.       30   Time =    0.2095 sec.
 time step number           30  t=  0.21904761904761905     
 An average of     5.63 GMRES iterations done per solve.
   Minimum no.        1 and maximum no.        9 iterations per solve
   Loop no.       40   Time =    0.3048 sec.
 time step number           40  t=  0.31428571428571439     
 An average of     5.85 GMRES iterations done per solve.
   Minimum no.        1 and maximum no.        9 iterations per solve
   Loop no.       50   Time =    0.4000 sec.
 time step number           50  t=  0.40952380952380957     
 An average of     6.02 GMRES iterations done per solve.
   Minimum no.        1 and maximum no.        9 iterations per solve
   Loop no.       60   Time =    0.4952 sec.
 time step number           60  t=  0.50476190476190486     
 An average of     6.14 GMRES iterations done per solve.
   Minimum no.        1 and maximum no.        9 iterations per solve
   Loop no.       70   Time =    0.5905 sec.
 time step number           70  t=  0.60000000000000009     
 An average of     6.23 GMRES iterations done per solve.
   Minimum no.        1 and maximum no.        9 iterations per solve
   Loop no.       80   Time =    0.6900 sec.
 time step number           80  t=  0.70000000000000018     
 An average of     6.32 GMRES iterations done per solve.
   Minimum no.        1 and maximum no.       10 iterations per solve
   Loop no.       90   Time =    0.7900 sec.
 time step number           90  t=  0.80000000000000004     
 An average of     6.41 GMRES iterations done per solve.
   Minimum no.        1 and maximum no.       10 iterations per solve
   Loop no.      100   Time =    0.8900 sec.
 time step number          100  t=  0.90000000000000013     
 An average of     6.52 GMRES iterations done per solve.
   Minimum no.        1 and maximum no.       10 iterations per solve
   Loop no.      110   Time =    0.9900 sec.
 time step number          110  t=   1.0000000000000000     
 An average of     6.61 GMRES iterations done per solve.
   Minimum no.        1 and maximum no.       10 iterations per solve
   Loop no.      120   Time =    1.0857 sec.
 time step number          120  t=   1.0952380952380949     
 An average of     6.68 GMRES iterations done per solve.
   Minimum no.        1 and maximum no.       10 iterations per solve
   Loop no.      130   Time =    1.1810 sec.
 time step number          130  t=   1.1904761904761907     
 An average of     6.76 GMRES iterations done per solve.
   Minimum no.        1 and maximum no.       11 iterations per solve
   Loop no.      140   Time =    1.2800 sec.
 time step number          140  t=   1.2900000000000003     
 An average of     6.84 GMRES iterations done per solve.
   Minimum no.        1 and maximum no.       11 iterations per solve
   Loop no.      150   Time =    1.3800 sec.
 time step number          150  t=   1.3900000000000001     
 An average of     6.92 GMRES iterations done per solve.
   Minimum no.        1 and maximum no.       11 iterations per solve
   Loop no.      160   Time =    1.4800 sec.
 time step number          160  t=   1.4900000000000002     
 An average of     6.99 GMRES iterations done per solve.
   Minimum no.        1 and maximum no.       11 iterations per solve
   Loop no.      170   Time =    1.5800 sec.
 time step number          170  t=   1.5900000000000003     
oceanWave3D: Time = 1.6 s.
oceanWave3D: deltaT = 0.01 s.

oceanWave3D: Time = 1.61 s.
oceanWave3D: deltaT = 0.01 s.

oceanWave3D: Time = 1.62 s.
oceanWave3D: deltaT = 0.01 s.

oceanWave3D: Time = 1.63 s.
oceanWave3D: deltaT = 0.01 s.

oceanWave3D: Time = 1.64 s.
oceanWave3D: deltaT = 0.01 s.

oceanWave3D: Time = 1.65 s.
oceanWave3D: deltaT = 0.01 s.

oceanWave3D: Time = 1.66 s.
oceanWave3D: deltaT = 0.01 s.

oceanWave3D: Time = 1.67 s.
oceanWave3D: deltaT = 0.01 s.

oceanWave3D: Time = 1.68 s.
oceanWave3D: deltaT = 0.01 s.

oceanWave3D: Time = 1.69 s.
oceanWave3D: deltaT = 0.01 s.

oceanWave3D: Time = 1.7 s.
oceanWave3D: deltaT = 0.01 s.

oceanWave3D: Time = 1.71 s.
oceanWave3D: deltaT = 0.01 s.

oceanWave3D: Time = 1.72 s.
oceanWave3D: deltaT = 0.01 s.

oceanWave3D: Time = 1.73 s.
oceanWave3D: deltaT = 0.01 s.

oceanWave3D: Time = 1.74 s.
oceanWave3D: deltaT = 0.01 s.

oceanWave3D: Time = 1.75 s.
oceanWave3D: deltaT = 0.01 s.

oceanWave3D: Time = 1.76 s.
oceanWave3D: deltaT = 0.01 s.

oceanWave3D: Time = 1.77 s.
oceanWave3D: deltaT = 0.01 s.

oceanWave3D: Time = 1.78 s.
oceanWave3D: deltaT = 0.01 s.

oceanWave3D: Time = 1.79 s.
oceanWave3D: deltaT = 0.01 s.

oceanWave3D: Time = 1.8 s.
oceanWave3D: deltaT = 0.01 s.

oceanWave3D: Time = 1.81 s.
oceanWave3D: deltaT = 0.01 s.

oceanWave3D: Time = 1.82 s.
oceanWave3D: deltaT = 0.01 s.

oceanWave3D: Time = 1.83 s.
oceanWave3D: deltaT = 0.01 s.

oceanWave3D: Time = 1.84 s.
oceanWave3D: deltaT = 0.01 s.

oceanWave3D: Time = 1.85 s.
oceanWave3D: deltaT = 0.01 s.

oceanWave3D: Time = 1.86 s.
oceanWave3D: deltaT = 0.01 s.

oceanWave3D: Time = 1.87 s.
oceanWave3D: deltaT = 0.01 s.

oceanWave3D: Time = 1.88 s.
oceanWave3D: deltaT = 0.01 s.

oceanWave3D: Time = 1.89 s.
oceanWave3D: deltaT = 0.01 s.

oceanWave3D: Time = 1.9 s.
oceanWave3D: deltaT = 0.01 s.

oceanWave3D: Time = 1.91 s.
oceanWave3D: deltaT = 0.01 s.

oceanWave3D: Time = 1.92 s.
oceanWave3D: deltaT = 0.01 s.

oceanWave3D: Time = 1.93 s.
oceanWave3D: deltaT = 0.01 s.

oceanWave3D: Time = 1.94 s.
oceanWave3D: deltaT = 0.01 s.

oceanWave3D: Time = 1.95 s.
oceanWave3D: deltaT = 0.01 s.

oceanWave3D: Time = 1.96 s.
oceanWave3D: deltaT = 0.01 s.

oceanWave3D: Time = 1.97 s.
oceanWave3D: deltaT = 0.01 s.

oceanWave3D: Time = 1.98 s.
oceanWave3D: deltaT = 0.01 s.

oceanWave3D: Time = 1.99 s.
oceanWave3D: deltaT = 0.01 s.

oceanWave3D: Time = 2 s.
oceanWave3D: deltaT = 0.01 s.

oceanWave3D: Time = 2.00952 s.
oceanWave3D: deltaT = 0.00952381 s.

oceanWave3D: Time = 2.01905 s.
oceanWave3D: deltaT = 0.00952381 s.

oceanWave3D: Time = 2.02857 s.
oceanWave3D: deltaT = 0.00952381 s.

oceanWave3D: Time = 2.0381 s.
oceanWave3D: deltaT = 0.00952381 s.

oceanWave3D: Time = 2.04762 s.
oceanWave3D: deltaT = 0.00952381 s.

oceanWave3D: Time = 2.05714 s.
oceanWave3D: deltaT = 0.00952381 s.

oceanWave3D: Time = 2.06667 s.
oceanWave3D: deltaT = 0.00952381 s.

oceanWave3D: Time = 2.07619 s.
oceanWave3D: deltaT = 0.00952381 s.

oceanWave3D: Time = 2.08571 s.
oceanWave3D: deltaT = 0.00952381 s.

oceanWave3D: Time = 2.09524 s.
oceanWave3D: deltaT = 0.00952381 s.

oceanWave3D: Time = 2.10476 s.
oceanWave3D: deltaT = 0.00952381 s.

oceanWave3D: Time = 2.11429 s.
oceanWave3D: deltaT = 0.00952381 s.

oceanWave3D: Time = 2.12381 s.
oceanWave3D: deltaT = 0.00952381 s.

oceanWave3D: Time = 2.13333 s.
oceanWave3D: deltaT = 0.00952381 s.

oceanWave3D: Time = 2.14286 s.
oceanWave3D: deltaT = 0.00952381 s.

oceanWave3D: Time = 2.15238 s.
oceanWave3D: deltaT = 0.00952381 s.

oceanWave3D: Time = 2.1619 s.
oceanWave3D: deltaT = 0.00952381 s.

oceanWave3D: Time = 2.17143 s.
oceanWave3D: deltaT = 0.00952381 s.

oceanWave3D: Time = 2.18095 s.
oceanWave3D: deltaT = 0.00952381 s.

oceanWave3D: Time = 2.19048 s.
oceanWave3D: deltaT = 0.00952381 s.

oceanWave3D: Time = 2.2 s.
oceanWave3D: deltaT = 0.00952381 s.

oceanWave3D: Time = 2.20952 s.
oceanWave3D: deltaT = 0.00952381 s.

oceanWave3D: Time = 2.21905 s.
oceanWave3D: deltaT = 0.00952381 s.

oceanWave3D: Time = 2.22857 s.
oceanWave3D: deltaT = 0.00952381 s.

oceanWave3D: Time = 2.2381 s.
oceanWave3D: deltaT = 0.00952381 s.

oceanWave3D: Time = 2.24762 s.
oceanWave3D: deltaT = 0.00952381 s.

oceanWave3D: Time = 2.25714 s.
oceanWave3D: deltaT = 0.00952381 s.

oceanWave3D: Time = 2.26667 s.
oceanWave3D: deltaT = 0.00952381 s.

oceanWave3D: Time = 2.27619 s.
oceanWave3D: deltaT = 0.00952381 s.

oceanWave3D: Time = 2.28571 s.
oceanWave3D: deltaT = 0.00952381 s.

oceanWave3D: Time = 2.29524 s.
oceanWave3D: deltaT = 0.00952381 s.

oceanWave3D: Time = 2.30476 s.
oceanWave3D: deltaT = 0.00952381 s.

oceanWave3D: Time = 2.31429 s.
oceanWave3D: deltaT = 0.00952381 s.

oceanWave3D: Time = 2.32381 s.
oceanWave3D: deltaT = 0.00952381 s.

oceanWave3D: Time = 2.33333 s.
oceanWave3D: deltaT = 0.00952381 s.

oceanWave3D: Time = 2.34286 s.
oceanWave3D: deltaT = 0.00952381 s.

oceanWave3D: Time = 2.35238 s.
oceanWave3D: deltaT = 0.00952381 s.

oceanWave3D: Time = 2.3619 s.
oceanWave3D: deltaT = 0.00952381 s.

oceanWave3D: Time = 2.37143 s.
oceanWave3D: deltaT = 0.00952381 s.

oceanWave3D: Time = 2.38095 s.
oceanWave3D: deltaT = 0.00952381 s.

oceanWave3D: Time = 2.39048 s.
oceanWave3D: deltaT = 0.00952381 s.

oceanWave3D: Time = 2.4 s.
oceanWave3D: deltaT = 0.00952381 s.

oceanWave3D: Time = 2.41 s.
oceanWave3D: deltaT = 0.01 s.

oceanWave3D: Time = 2.42 s.
oceanWave3D: deltaT = 0.01 s.

oceanWave3D: Time = 2.42947 s.
oceanWave3D: deltaT = 0.00947368 s.

oceanWave3D: Time = 2.43895 s.
oceanWave3D: deltaT = 0.00947368 s.

oceanWave3D: Time = 2.44842 s.
oceanWave3D: deltaT = 0.00947368 s.

oceanWave3D: Time = 2.45789 s.
oceanWave3D: deltaT = 0.00947368 s.

oceanWave3D: Time = 2.46737 s.
oceanWave3D: deltaT = 0.00947368 s.

oceanWave3D: Time = 2.47684 s.
oceanWave3D: deltaT = 0.00947368 s.

oceanWave3D: Time = 2.48632 s.
oceanWave3D: deltaT = 0.00947368 s.

oceanWave3D: Time = 2.49579 s.
oceanWave3D: deltaT = 0.00947368 s.

oceanWave3D: Time = 2.50526 s.
oceanWave3D: deltaT = 0.00947368 s.

oceanWave3D: Time = 2.51474 s.
oceanWave3D: deltaT = 0.00947368 s.

oceanWave3D: Time = 2.52421 s.
oceanWave3D: deltaT = 0.00947368 s.

oceanWave3D: Time = 2.53368 s.
oceanWave3D: deltaT = 0.00947368 s.

oceanWave3D: Time = 2.54316 s.
oceanWave3D: deltaT = 0.00947368 s.

oceanWave3D: Time = 2.55263 s.
oceanWave3D: deltaT = 0.00947368 s.

oceanWave3D: Time = 2.56211 s.
oceanWave3D: deltaT = 0.00947368 s.

oceanWave3D: Time = 2.57158 s.
oceanWave3D: deltaT = 0.00947368 s.

oceanWave3D: Time = 2.58105 s.
oceanWave3D: deltaT = 0.00947368 s.

oceanWave3D: Time = 2.59053 s.
oceanWave3D: deltaT = 0.00947368 s.

oceanWave3D: Time = 2.6 s.
oceanWave3D: deltaT = 0.00947368 s.

oceanWave3D: Time = 2.60952 s.
oceanWave3D: deltaT = 0.00952381 s.

oceanWave3D: Time = 2.61905 s.
oceanWave3D: deltaT = 0.00952381 s.

oceanWave3D: Time = 2.62857 s.
oceanWave3D: deltaT = 0.00952381 s.

oceanWave3D: Time = 2.6381 s.
oceanWave3D: deltaT = 0.00952381 s.

oceanWave3D: Time = 2.64762 s.
oceanWave3D: deltaT = 0.00952381 s.

oceanWave3D: Time = 2.65714 s.
oceanWave3D: deltaT = 0.00952381 s.

oceanWave3D: Time = 2.66667 s.
oceanWave3D: deltaT = 0.00952381 s.

oceanWave3D: Time = 2.67619 s.
oceanWave3D: deltaT = 0.00952381 s.

oceanWave3D: Time = 2.68571 s.
oceanWave3D: deltaT = 0.00952381 s.

oceanWave3D: Time = 2.69524 s.
oceanWave3D: deltaT = 0.00952381 s.

oceanWave3D: Time = 2.70476 s.
oceanWave3D: deltaT = 0.00952381 s.

oceanWave3D: Time = 2.71429 s.
oceanWave3D: deltaT = 0.00952381 s.

oceanWave3D: Time = 2.72381 s.
oceanWave3D: deltaT = 0.00952381 s.

oceanWave3D: Time = 2.73333 s.
oceanWave3D: deltaT = 0.00952381 s.

oceanWave3D: Time = 2.74286 s.
oceanWave3D: deltaT = 0.00952381 s.

oceanWave3D: Time = 2.75238 s.
oceanWave3D: deltaT = 0.00952381 s.

oceanWave3D: Time = 2.7619 s.
oceanWave3D: deltaT = 0.00952381 s.

oceanWave3D: Time = 2.77143 s.
oceanWave3D: deltaT = 0.00952381 s.

oceanWave3D: Time = 2.78095 s.
oceanWave3D: deltaT = 0.00952381 s.

oceanWave3D: Time = 2.79048 s.
oceanWave3D: deltaT = 0.00952381 s.

oceanWave3D: Time = 2.8 s.
oceanWave3D: deltaT = 0.00952381 s.

oceanWave3D: Time = 2.81 s.
oceanWave3D: deltaT = 0.01 s.

oceanWave3D: Time = 2.82 s.
oceanWave3D: deltaT = 0.01 s.

oceanWave3D: Time = 2.82947 s.
oceanWave3D: deltaT = 0.00947368 s.

oceanWave3D: Time = 2.83895 s.
oceanWave3D: deltaT = 0.00947368 s.

oceanWave3D: Time = 2.84842 s.
oceanWave3D: deltaT = 0.00947368 s.

oceanWave3D: Time = 2.85789 s.
oceanWave3D: deltaT = 0.00947368 s.

oceanWave3D: Time = 2.86737 s.
oceanWave3D: deltaT = 0.00947368 s.

oceanWave3D: Time = 2.87684 s.
oceanWave3D: deltaT = 0.00947368 s.

oceanWave3D: Time = 2.88632 s.
oceanWave3D: deltaT = 0.00947368 s.

oceanWave3D: Time = 2.89579 s.
oceanWave3D: deltaT = 0.00947368 s.

oceanWave3D: Time = 2.90526 s.
oceanWave3D: deltaT = 0.00947368 s.

oceanWave3D: Time = 2.91474 s.
oceanWave3D: deltaT = 0.00947368 s.

oceanWave3D: Time = 2.92421 s.
oceanWave3D: deltaT = 0.00947368 s.

oceanWave3D: Time = 2.93368 s.
oceanWave3D: deltaT = 0.00947368 s.

oceanWave3D: Time = 2.94316 s.
oceanWave3D: deltaT = 0.00947368 s.

oceanWave3D: Time = 2.95263 s.
oceanWave3D: deltaT = 0.00947368 s.

oceanWave3D: Time = 2.96211 s.
oceanWave3D: deltaT = 0.00947368 s.

oceanWave3D: Time = 2.97158 s.
oceanWave3D: deltaT = 0.00947368 s.

oceanWave3D: Time = 2.98105 s.
oceanWave3D: deltaT = 0.00947368 s.

oceanWave3D: Time = 2.99053 s.
oceanWave3D: deltaT = 0.00947368 s.

oceanWave3D: Time = 3 s.
oceanWave3D: deltaT = 0.00947368 s.

oceanWave3D: Time = 3.00952 s.
oceanWave3D: deltaT = 0.00952381 s.

oceanWave3D: Time = 3.01905 s.
oceanWave3D: deltaT = 0.00952381 s.

oceanWave3D: Time = 3.02857 s.
oceanWave3D: deltaT = 0.00952381 s.

oceanWave3D: Time = 3.0381 s.
oceanWave3D: deltaT = 0.00952381 s.

oceanWave3D: Time = 3.04762 s.
oceanWave3D: deltaT = 0.00952381 s.

oceanWave3D: Time = 3.05714 s.
oceanWave3D: deltaT = 0.00952381 s.

oceanWave3D: Time = 3.06667 s.
oceanWave3D: deltaT = 0.00952381 s.

oceanWave3D: Time = 3.07619 s.
oceanWave3D: deltaT = 0.00952381 s.

oceanWave3D: Time = 3.08571 s.
oceanWave3D: deltaT = 0.00952381 s.

oceanWave3D: Time = 3.09524 s.
oceanWave3D: deltaT = 0.00952381 s.

oceanWave3D: Time = 3.10476 s.
oceanWave3D: deltaT = 0.00952381 s.

oceanWave3D: Time = 3.11429 s.
oceanWave3D: deltaT = 0.00952381 s.

oceanWave3D: Time = 3.12381 s.
oceanWave3D: deltaT = 0.00952381 s.

oceanWave3D: Time = 3.13333 s.
oceanWave3D: deltaT = 0.00952381 s.

oceanWave3D: Time = 3.14286 s.
oceanWave3D: deltaT = 0.00952381 s.

oceanWave3D: Time = 3.15238 s.
oceanWave3D: deltaT = 0.00952381 s.

oceanWave3D: Time = 3.1619 s.
oceanWave3D: deltaT = 0.00952381 s.

oceanWave3D: Time = 3.17143 s.
oceanWave3D: deltaT = 0.00952381 s.

oceanWave3D: Time = 3.18095 s.
oceanWave3D: deltaT = 0.00952381 s.

oceanWave3D: Time = 3.19048 s.
oceanWave3D: deltaT = 0.00952381 s.

oceanWave3D: Time = 3.2 s.
oceanWave3D: deltaT = 0.00952381 s.

oceanWave3D: Time = 3.20952 s.
oceanWave3D: deltaT = 0.00952381 s.

oceanWave3D: Time = 3.21905 s.
oceanWave3D: deltaT = 0.00952381 s.

oceanWave3D: Time = 3.22857 s.
oceanWave3D: deltaT = 0.00952381 s.

oceanWave3D: Time = 3.2381 s.
oceanWave3D: deltaT = 0.00952381 s.

oceanWave3D: Time = 3.24762 s.
oceanWave3D: deltaT = 0.00952381 s.

oceanWave3D: Time = 3.25714 s.
oceanWave3D: deltaT = 0.00952381 s.

oceanWave3D: Time = 3.26667 s.
oceanWave3D: deltaT = 0.00952381 s.

oceanWave3D: Time = 3.27619 s.
oceanWave3D: deltaT = 0.00952381 s.

oceanWave3D: Time = 3.28571 s.
oceanWave3D: deltaT = 0.00952381 s.

oceanWave3D: Time = 3.29524 s.
oceanWave3D: deltaT = 0.00952381 s.

oceanWave3D: Time = 3.30476 s.
oceanWave3D: deltaT = 0.00952381 s.

oceanWave3D: Time = 3.31429 s.
oceanWave3D: deltaT = 0.00952381 s.

oceanWave3D: Time = 3.32381 s.
oceanWave3D: deltaT = 0.00952381 s.

 An average of     7.03 GMRES iterations done per solve.
   Minimum no.        1 and maximum no.       11 iterations per solve
   Loop no.      180   Time =    1.6800 sec.
 time step number          180  t=   1.6900000000000002     
 An average of     7.07 GMRES iterations done per solve.
   Minimum no.        1 and maximum no.       11 iterations per solve
   Loop no.      190   Time =    1.7800 sec.
 time step number          190  t=   1.7900000000000000     
 An average of     7.12 GMRES iterations done per solve.
   Minimum no.        1 and maximum no.       11 iterations per solve
   Loop no.      200   Time =    1.8800 sec.
 time step number          200  t=   1.8900000000000001     
 An average of     7.16 GMRES iterations done per solve.
   Minimum no.        1 and maximum no.       11 iterations per solve
   Loop no.      210   Time =    1.9800 sec.
 time step number          210  t=   1.9900000000000002     
 An average of     7.22 GMRES iterations done per solve.
   Minimum no.        1 and maximum no.       11 iterations per solve
   Loop no.      220   Time =    2.0762 sec.
 time step number          220  t=   2.0857142857142854     
 An average of     7.28 GMRES iterations done per solve.
   Minimum no.        1 and maximum no.       12 iterations per solve
   Loop no.      230   Time =    2.1714 sec.
 time step number          230  t=   2.1809523809523808     
 An average of     7.36 GMRES iterations done per solve.
   Minimum no.        1 and maximum no.       12 iterations per solve
   Loop no.      240   Time =    2.2667 sec.
 time step number          240  t=   2.2761904761904761     
 An average of     7.43 GMRES iterations done per solve.
   Minimum no.        1 and maximum no.       12 iterations per solve
   Loop no.      250   Time =    2.3619 sec.
 time step number          250  t=   2.3714285714285710     
 An average of     7.49 GMRES iterations done per solve.
   Minimum no.        1 and maximum no.       12 iterations per solve
   Loop no.      260   Time =    2.4579 sec.
 time step number          260  t=   2.4673684210526314     
 An average of     7.52 GMRES iterations done per solve.
   Minimum no.        1 and maximum no.       12 iterations per solve
   Loop no.      270   Time =    2.5526 sec.
 time step number          270  t=   2.5621052631578944     
 An average of     7.54 GMRES iterations done per solve.
   Minimum no.        1 and maximum no.       12 iterations per solve
   Loop no.      280   Time =    2.6476 sec.
 time step number          280  t=   2.6571428571428570     
 An average of     7.57 GMRES iterations done per solve.
   Minimum no.        1 and maximum no.       12 iterations per solve
   Loop no.      290   Time =    2.7429 sec.
 time step number          290  t=   2.7523809523809519     
 An average of     7.61 GMRES iterations done per solve.
   Minimum no.        1 and maximum no.       12 iterations per solve
   Loop no.      300   Time =    2.8389 sec.
 time step number          300  t=   2.8484210526315787     
 An average of     7.65 GMRES iterations done per solve.
   Minimum no.        1 and maximum no.       12 iterations per solve
   Loop no.      310   Time =    2.9337 sec.
 time step number          310  t=   2.9431578947368418     
 An average of     7.70 GMRES iterations done per solve.
   Minimum no.        1 and maximum no.       12 iterations per solve
   Loop no.      320   Time =    3.0286 sec.
 time step number          320  t=   3.0380952380952380     
 An average of     7.75 GMRES iterations done per solve.
   Minimum no.        1 and maximum no.       12 iterations per solve
   Loop no.      330   Time =    3.1238 sec.
 time step number          330  t=   3.1333333333333329     
 An average of     7.80 GMRES iterations done per solve.
   Minimum no.        1 and maximum no.       12 iterations per solve
   Loop no.      340   Time =    3.2190 sec.
 time step number          340  t=   3.2285714285714286     
 An average of     7.84 GMRES iterations done per solve.
   Minimum no.        1 and maximum no.       12 iterations per solve
   Loop no.      350   Time =    3.3143 sec.
oceanWave3D: Time = 3.33333 s.
oceanWave3D: deltaT = 0.00952381 s.

oceanWave3D: Time = 3.34286 s.
oceanWave3D: deltaT = 0.00952381 s.

oceanWave3D: Time = 3.35238 s.
oceanWave3D: deltaT = 0.00952381 s.

oceanWave3D: Time = 3.3619 s.
oceanWave3D: deltaT = 0.00952381 s.

oceanWave3D: Time = 3.37143 s.
oceanWave3D: deltaT = 0.00952381 s.

oceanWave3D: Time = 3.38095 s.
oceanWave3D: deltaT = 0.00952381 s.

oceanWave3D: Time = 3.39048 s.
oceanWave3D: deltaT = 0.00952381 s.

oceanWave3D: Time = 3.4 s.
oceanWave3D: deltaT = 0.00952381 s.

oceanWave3D: Time = 3.41 s.
oceanWave3D: deltaT = 0.01 s.

oceanWave3D: Time = 3.42 s.
oceanWave3D: deltaT = 0.01 s.

oceanWave3D: Time = 3.42947 s.
oceanWave3D: deltaT = 0.00947368 s.

oceanWave3D: Time = 3.43895 s.
oceanWave3D: deltaT = 0.00947368 s.

oceanWave3D: Time = 3.44842 s.
oceanWave3D: deltaT = 0.00947368 s.

oceanWave3D: Time = 3.45789 s.
oceanWave3D: deltaT = 0.00947368 s.

oceanWave3D: Time = 3.46737 s.
oceanWave3D: deltaT = 0.00947368 s.

oceanWave3D: Time = 3.47684 s.
oceanWave3D: deltaT = 0.00947368 s.

oceanWave3D: Time = 3.48632 s.
oceanWave3D: deltaT = 0.00947368 s.

oceanWave3D: Time = 3.49579 s.
oceanWave3D: deltaT = 0.00947368 s.

oceanWave3D: Time = 3.50526 s.
oceanWave3D: deltaT = 0.00947368 s.

oceanWave3D: Time = 3.51474 s.
oceanWave3D: deltaT = 0.00947368 s.

oceanWave3D: Time = 3.52421 s.
oceanWave3D: deltaT = 0.00947368 s.

oceanWave3D: Time = 3.53368 s.
oceanWave3D: deltaT = 0.00947368 s.

oceanWave3D: Time = 3.54316 s.
oceanWave3D: deltaT = 0.00947368 s.

oceanWave3D: Time = 3.55263 s.
oceanWave3D: deltaT = 0.00947368 s.

oceanWave3D: Time = 3.56211 s.
oceanWave3D: deltaT = 0.00947368 s.

oceanWave3D: Time = 3.57158 s.
oceanWave3D: deltaT = 0.00947368 s.

oceanWave3D: Time = 3.58105 s.
oceanWave3D: deltaT = 0.00947368 s.

oceanWave3D: Time = 3.59053 s.
oceanWave3D: deltaT = 0.00947368 s.

oceanWave3D: Time = 3.6 s.
oceanWave3D: deltaT = 0.00947368 s.

oceanWave3D: Time = 3.60952 s.
oceanWave3D: deltaT = 0.00952381 s.

oceanWave3D: Time = 3.61905 s.
oceanWave3D: deltaT = 0.00952381 s.

oceanWave3D: Time = 3.62857 s.
oceanWave3D: deltaT = 0.00952381 s.

oceanWave3D: Time = 3.6381 s.
oceanWave3D: deltaT = 0.00952381 s.

oceanWave3D: Time = 3.64762 s.
oceanWave3D: deltaT = 0.00952381 s.

oceanWave3D: Time = 3.65714 s.
oceanWave3D: deltaT = 0.00952381 s.

oceanWave3D: Time = 3.66667 s.
oceanWave3D: deltaT = 0.00952381 s.

oceanWave3D: Time = 3.67619 s.
oceanWave3D: deltaT = 0.00952381 s.

oceanWave3D: Time = 3.68571 s.
oceanWave3D: deltaT = 0.00952381 s.

oceanWave3D: Time = 3.69524 s.
oceanWave3D: deltaT = 0.00952381 s.

oceanWave3D: Time = 3.70476 s.
oceanWave3D: deltaT = 0.00952381 s.

oceanWave3D: Time = 3.71429 s.
oceanWave3D: deltaT = 0.00952381 s.

oceanWave3D: Time = 3.72381 s.
oceanWave3D: deltaT = 0.00952381 s.

oceanWave3D: Time = 3.73333 s.
oceanWave3D: deltaT = 0.00952381 s.

oceanWave3D: Time = 3.74286 s.
oceanWave3D: deltaT = 0.00952381 s.

oceanWave3D: Time = 3.75238 s.
oceanWave3D: deltaT = 0.00952381 s.

oceanWave3D: Time = 3.7619 s.
oceanWave3D: deltaT = 0.00952381 s.

oceanWave3D: Time = 3.77143 s.
oceanWave3D: deltaT = 0.00952381 s.

oceanWave3D: Time = 3.78095 s.
oceanWave3D: deltaT = 0.00952381 s.

oceanWave3D: Time = 3.79048 s.
oceanWave3D: deltaT = 0.00952381 s.

oceanWave3D: Time = 3.8 s.
oceanWave3D: deltaT = 0.00952381 s.

oceanWave3D: Time = 3.81 s.
oceanWave3D: deltaT = 0.01 s.

oceanWave3D: Time = 3.82 s.
oceanWave3D: deltaT = 0.01 s.

oceanWave3D: Time = 3.82947 s.
oceanWave3D: deltaT = 0.00947368 s.

oceanWave3D: Time = 3.83895 s.
oceanWave3D: deltaT = 0.00947368 s.

oceanWave3D: Time = 3.84842 s.
oceanWave3D: deltaT = 0.00947368 s.

oceanWave3D: Time = 3.85789 s.
oceanWave3D: deltaT = 0.00947368 s.

oceanWave3D: Time = 3.86737 s.
oceanWave3D: deltaT = 0.00947368 s.

oceanWave3D: Time = 3.87684 s.
oceanWave3D: deltaT = 0.00947368 s.

oceanWave3D: Time = 3.88632 s.
oceanWave3D: deltaT = 0.00947368 s.

oceanWave3D: Time = 3.89579 s.
oceanWave3D: deltaT = 0.00947368 s.

oceanWave3D: Time = 3.90526 s.
oceanWave3D: deltaT = 0.00947368 s.

oceanWave3D: Time = 3.91474 s.
oceanWave3D: deltaT = 0.00947368 s.

oceanWave3D: Time = 3.92421 s.
oceanWave3D: deltaT = 0.00947368 s.

oceanWave3D: Time = 3.93368 s.
oceanWave3D: deltaT = 0.00947368 s.

oceanWave3D: Time = 3.94316 s.
oceanWave3D: deltaT = 0.00947368 s.

oceanWave3D: Time = 3.95263 s.
oceanWave3D: deltaT = 0.00947368 s.

oceanWave3D: Time = 3.96211 s.
oceanWave3D: deltaT = 0.00947368 s.

oceanWave3D: Time = 3.97158 s.
oceanWave3D: deltaT = 0.00947368 s.

oceanWave3D: Time = 3.98105 s.
oceanWave3D: deltaT = 0.00947368 s.

oceanWave3D: Time = 3.99053 s.
oceanWave3D: deltaT = 0.00947368 s.

oceanWave3D: Time = 4 s.
oceanWave3D: deltaT = 0.00947368 s.

oceanWave3D: Time = 4.00952 s.
oceanWave3D: deltaT = 0.00952381 s.

oceanWave3D: Time = 4.01905 s.
oceanWave3D: deltaT = 0.00952381 s.

oceanWave3D: Time = 4.02857 s.
oceanWave3D: deltaT = 0.00952381 s.

oceanWave3D: Time = 4.0381 s.
oceanWave3D: deltaT = 0.00952381 s.

oceanWave3D: Time = 4.04762 s.
oceanWave3D: deltaT = 0.00952381 s.

oceanWave3D: Time = 4.05714 s.
oceanWave3D: deltaT = 0.00952381 s.

oceanWave3D: Time = 4.06667 s.
oceanWave3D: deltaT = 0.00952381 s.

oceanWave3D: Time = 4.07619 s.
oceanWave3D: deltaT = 0.00952381 s.

oceanWave3D: Time = 4.08571 s.
oceanWave3D: deltaT = 0.00952381 s.

oceanWave3D: Time = 4.09524 s.
oceanWave3D: deltaT = 0.00952381 s.

oceanWave3D: Time = 4.10476 s.
oceanWave3D: deltaT = 0.00952381 s.

oceanWave3D: Time = 4.11429 s.
oceanWave3D: deltaT = 0.00952381 s.

oceanWave3D: Time = 4.12381 s.
oceanWave3D: deltaT = 0.00952381 s.

oceanWave3D: Time = 4.13333 s.
oceanWave3D: deltaT = 0.00952381 s.

oceanWave3D: Time = 4.14286 s.
oceanWave3D: deltaT = 0.00952381 s.

oceanWave3D: Time = 4.15238 s.
oceanWave3D: deltaT = 0.00952381 s.

oceanWave3D: Time = 4.1619 s.
oceanWave3D: deltaT = 0.00952381 s.

oceanWave3D: Time = 4.17143 s.
oceanWave3D: deltaT = 0.00952381 s.

oceanWave3D: Time = 4.18095 s.
oceanWave3D: deltaT = 0.00952381 s.

oceanWave3D: Time = 4.19048 s.
oceanWave3D: deltaT = 0.00952381 s.

oceanWave3D: Time = 4.2 s.
oceanWave3D: deltaT = 0.00952381 s.

oceanWave3D: Time = 4.20952 s.
oceanWave3D: deltaT = 0.00952381 s.

oceanWave3D: Time = 4.21905 s.
oceanWave3D: deltaT = 0.00952381 s.

oceanWave3D: Time = 4.22857 s.
oceanWave3D: deltaT = 0.00952381 s.

oceanWave3D: Time = 4.2381 s.
oceanWave3D: deltaT = 0.00952381 s.

oceanWave3D: Time = 4.24762 s.
oceanWave3D: deltaT = 0.00952381 s.

oceanWave3D: Time = 4.25714 s.
oceanWave3D: deltaT = 0.00952381 s.

oceanWave3D: Time = 4.26667 s.
oceanWave3D: deltaT = 0.00952381 s.

oceanWave3D: Time = 4.27619 s.
oceanWave3D: deltaT = 0.00952381 s.

oceanWave3D: Time = 4.28571 s.
oceanWave3D: deltaT = 0.00952381 s.

oceanWave3D: Time = 4.29524 s.
oceanWave3D: deltaT = 0.00952381 s.

oceanWave3D: Time = 4.30476 s.
oceanWave3D: deltaT = 0.00952381 s.

oceanWave3D: Time = 4.31429 s.
oceanWave3D: deltaT = 0.00952381 s.

oceanWave3D: Time = 4.32381 s.
oceanWave3D: deltaT = 0.00952381 s.

oceanWave3D: Time = 4.33333 s.
oceanWave3D: deltaT = 0.00952381 s.

oceanWave3D: Time = 4.34286 s.
oceanWave3D: deltaT = 0.00952381 s.

oceanWave3D: Time = 4.35238 s.
oceanWave3D: deltaT = 0.00952381 s.

oceanWave3D: Time = 4.3619 s.
oceanWave3D: deltaT = 0.00952381 s.

oceanWave3D: Time = 4.37143 s.
oceanWave3D: deltaT = 0.00952381 s.

oceanWave3D: Time = 4.38095 s.
oceanWave3D: deltaT = 0.00952381 s.

oceanWave3D: Time = 4.39048 s.
oceanWave3D: deltaT = 0.00952381 s.

oceanWave3D: Time = 4.4 s.
oceanWave3D: deltaT = 0.00952381 s.

oceanWave3D: Time = 4.40952 s.
oceanWave3D: deltaT = 0.00952381 s.

oceanWave3D: Time = 4.41905 s.
oceanWave3D: deltaT = 0.00952381 s.

oceanWave3D: Time = 4.42857 s.
oceanWave3D: deltaT = 0.00952381 s.

oceanWave3D: Time = 4.4381 s.
oceanWave3D: deltaT = 0.00952381 s.

oceanWave3D: Time = 4.44762 s.
oceanWave3D: deltaT = 0.00952381 s.

oceanWave3D: Time = 4.45714 s.
oceanWave3D: deltaT = 0.00952381 s.

oceanWave3D: Time = 4.46667 s.
oceanWave3D: deltaT = 0.00952381 s.

oceanWave3D: Time = 4.47619 s.
oceanWave3D: deltaT = 0.00952381 s.

oceanWave3D: Time = 4.48571 s.
oceanWave3D: deltaT = 0.00952381 s.

oceanWave3D: Time = 4.49524 s.
oceanWave3D: deltaT = 0.00952381 s.

oceanWave3D: Time = 4.50476 s.
oceanWave3D: deltaT = 0.00952381 s.

oceanWave3D: Time = 4.51429 s.
oceanWave3D: deltaT = 0.00952381 s.

oceanWave3D: Time = 4.52381 s.
oceanWave3D: deltaT = 0.00952381 s.

oceanWave3D: Time = 4.53333 s.
oceanWave3D: deltaT = 0.00952381 s.

oceanWave3D: Time = 4.54286 s.
oceanWave3D: deltaT = 0.00952381 s.

oceanWave3D: Time = 4.55238 s.
oceanWave3D: deltaT = 0.00952381 s.

oceanWave3D: Time = 4.5619 s.
oceanWave3D: deltaT = 0.00952381 s.

oceanWave3D: Time = 4.57143 s.
oceanWave3D: deltaT = 0.00952381 s.

oceanWave3D: Time = 4.58095 s.
oceanWave3D: deltaT = 0.00952381 s.

oceanWave3D: Time = 4.59048 s.
oceanWave3D: deltaT = 0.00952381 s.

oceanWave3D: Time = 4.6 s.
oceanWave3D: deltaT = 0.00952381 s.

oceanWave3D: Time = 4.60952 s.
oceanWave3D: deltaT = 0.00952381 s.

oceanWave3D: Time = 4.61905 s.
oceanWave3D: deltaT = 0.00952381 s.

oceanWave3D: Time = 4.62857 s.
oceanWave3D: deltaT = 0.00952381 s.

oceanWave3D: Time = 4.6381 s.
oceanWave3D: deltaT = 0.00952381 s.

oceanWave3D: Time = 4.64762 s.
oceanWave3D: deltaT = 0.00952381 s.

oceanWave3D: Time = 4.65714 s.
oceanWave3D: deltaT = 0.00952381 s.

oceanWave3D: Time = 4.66667 s.
oceanWave3D: deltaT = 0.00952381 s.

oceanWave3D: Time = 4.67619 s.
oceanWave3D: deltaT = 0.00952381 s.

oceanWave3D: Time = 4.68571 s.
oceanWave3D: deltaT = 0.00952381 s.

oceanWave3D: Time = 4.69524 s.
oceanWave3D: deltaT = 0.00952381 s.

oceanWave3D: Time = 4.70476 s.
oceanWave3D: deltaT = 0.00952381 s.

oceanWave3D: Time = 4.71429 s.
oceanWave3D: deltaT = 0.00952381 s.

oceanWave3D: Time = 4.72381 s.
oceanWave3D: deltaT = 0.00952381 s.

oceanWave3D: Time = 4.73333 s.
oceanWave3D: deltaT = 0.00952381 s.

oceanWave3D: Time = 4.74286 s.
oceanWave3D: deltaT = 0.00952381 s.

oceanWave3D: Time = 4.75238 s.
oceanWave3D: deltaT = 0.00952381 s.

oceanWave3D: Time = 4.7619 s.
oceanWave3D: deltaT = 0.00952381 s.

oceanWave3D: Time = 4.77143 s.
oceanWave3D: deltaT = 0.00952381 s.

oceanWave3D: Time = 4.78095 s.
oceanWave3D: deltaT = 0.00952381 s.

oceanWave3D: Time = 4.79048 s.
oceanWave3D: deltaT = 0.00952381 s.

oceanWave3D: Time = 4.8 s.
oceanWave3D: deltaT = 0.00952381 s.

oceanWave3D: Time = 4.81 s.
oceanWave3D: deltaT = 0.01 s.

oceanWave3D: Time = 4.82 s.
oceanWave3D: deltaT = 0.01 s.

oceanWave3D: Time = 4.83 s.
oceanWave3D: deltaT = 0.01 s.

oceanWave3D: Time = 4.84 s.
oceanWave3D: deltaT = 0.01 s.

oceanWave3D: Time = 4.84941 s.
oceanWave3D: deltaT = 0.00941176 s.

oceanWave3D: Time = 4.85882 s.
oceanWave3D: deltaT = 0.00941176 s.

oceanWave3D: Time = 4.86824 s.
oceanWave3D: deltaT = 0.00941176 s.

oceanWave3D: Time = 4.87765 s.
oceanWave3D: deltaT = 0.00941176 s.

oceanWave3D: Time = 4.88706 s.
oceanWave3D: deltaT = 0.00941176 s.

oceanWave3D: Time = 4.89647 s.
oceanWave3D: deltaT = 0.00941176 s.

oceanWave3D: Time = 4.90588 s.
oceanWave3D: deltaT = 0.00941176 s.

oceanWave3D: Time = 4.91529 s.
oceanWave3D: deltaT = 0.00941176 s.

oceanWave3D: Time = 4.92471 s.
oceanWave3D: deltaT = 0.00941176 s.

oceanWave3D: Time = 4.93412 s.
oceanWave3D: deltaT = 0.00941176 s.

oceanWave3D: Time = 4.94353 s.
oceanWave3D: deltaT = 0.00941176 s.

 time step number          350  t=   3.3238095238095235     
 An average of     7.88 GMRES iterations done per solve.
   Minimum no.        1 and maximum no.       12 iterations per solve
   Loop no.      360   Time =    3.4100 sec.
 time step number          360  t=   3.4199999999999999     
 An average of     7.91 GMRES iterations done per solve.
   Minimum no.        1 and maximum no.       12 iterations per solve
   Loop no.      370   Time =    3.5053 sec.
 time step number          370  t=   3.5147368421052629     
 An average of     7.94 GMRES iterations done per solve.
   Minimum no.        1 and maximum no.       12 iterations per solve
   Loop no.      380   Time =    3.6000 sec.
 time step number          380  t=   3.6095238095238096     
 An average of     7.97 GMRES iterations done per solve.
   Minimum no.        1 and maximum no.       13 iterations per solve
   Loop no.      390   Time =    3.6952 sec.
 time step number          390  t=   3.7047619047619045     
 An average of     8.00 GMRES iterations done per solve.
   Minimum no.        1 and maximum no.       13 iterations per solve
   Loop no.      400   Time =    3.7905 sec.
 time step number          400  t=   3.8000000000000003     
 An average of     8.03 GMRES iterations done per solve.
   Minimum no.        1 and maximum no.       13 iterations per solve
   Loop no.      410   Time =    3.8863 sec.
 time step number          410  t=   3.8957894736842102     
 An average of     8.05 GMRES iterations done per solve.
   Minimum no.        1 and maximum no.       13 iterations per solve
   Loop no.      420   Time =    3.9811 sec.
 time step number          420  t=   3.9905263157894737     
 An average of     8.10 GMRES iterations done per solve.
   Minimum no.        1 and maximum no.       13 iterations per solve
   Loop no.      430   Time =    4.0762 sec.
 time step number          430  t=   4.0857142857142854     
 An average of     8.16 GMRES iterations done per solve.
   Minimum no.        1 and maximum no.       14 iterations per solve
   Loop no.      440   Time =    4.1714 sec.
 time step number          440  t=   4.1809523809523803     
 An average of     8.22 GMRES iterations done per solve.
   Minimum no.        1 and maximum no.       14 iterations per solve
   Loop no.      450   Time =    4.2667 sec.
 time step number          450  t=   4.2761904761904761     
 An average of     8.28 GMRES iterations done per solve.
   Minimum no.        1 and maximum no.       14 iterations per solve
   Loop no.      460   Time =    4.3619 sec.
 time step number          460  t=   4.3714285714285710     
 An average of     8.32 GMRES iterations done per solve.
   Minimum no.        1 and maximum no.       14 iterations per solve
   Loop no.      470   Time =    4.4571 sec.
 time step number          470  t=   4.4666666666666668     
 An average of     8.35 GMRES iterations done per solve.
   Minimum no.        1 and maximum no.       14 iterations per solve
   Loop no.      480   Time =    4.5524 sec.
 time step number          480  t=   4.5619047619047617     
 An average of     8.38 GMRES iterations done per solve.
   Minimum no.        1 and maximum no.       14 iterations per solve
   Loop no.      490   Time =    4.6476 sec.
 time step number          490  t=   4.6571428571428575     
 An average of     8.41 GMRES iterations done per solve.
   Minimum no.        1 and maximum no.       14 iterations per solve
   Loop no.      500   Time =    4.7429 sec.
 time step number          500  t=   4.7523809523809524     
 An average of     8.44 GMRES iterations done per solve.
   Minimum no.        1 and maximum no.       14 iterations per solve
   Loop no.      510   Time =    4.8400 sec.
 time step number          510  t=   4.8494117647058825     
 An average of     8.47 GMRES iterations done per solve.
   Minimum no.        1 and maximum no.       14 iterations per solve
   Loop no.      520   Time =    4.9341 sec.
 time step number          520  t=   4.9435294117647066     
 An average of     8.51 GMRES iterations done per solve.
   Minimum no.        1 and maximum no.       14 iterations per solve
oceanWave3D: Time = 4.95294 s.
oceanWave3D: deltaT = 0.00941176 s.

oceanWave3D: Time = 4.96235 s.
oceanWave3D: deltaT = 0.00941176 s.

oceanWave3D: Time = 4.97176 s.
oceanWave3D: deltaT = 0.00941176 s.

oceanWave3D: Time = 4.98118 s.
oceanWave3D: deltaT = 0.00941176 s.

oceanWave3D: Time = 4.99059 s.
oceanWave3D: deltaT = 0.00941176 s.

oceanWave3D: Time = 5 s.
oceanWave3D: deltaT = 0.00941176 s.

Mapping the OceanWave3D solution to the OpenFoam domain
Applied ramping factor: 1

GAMG:  Solving for pcorr, Initial residual = 1, Final residual = 9.60637e-08, No Iterations 20
GAMG:  Solving for pcorr, Initial residual = 9.64308e-09, Final residual = 9.64308e-09, No Iterations 0
Courant Number mean: 0.00943881 max: 0.113915
deltaT = 0.0111111
External step: 24.37 s.
PIMPLE: iteration 1
smoothSolver:  Solving for alpha.water, Initial residual = 0.000248532, Final residual = 1.75115e-10, No Iterations 2
Phase-1 volume fraction = 0.669785  Min(alpha.water) = 0  Max(alpha.water) = 1
MULES: Correcting alpha.water
Phase-1 volume fraction = 0.669785  Min(alpha.water) = 0  Max(alpha.water) = 1
Relaxing time: 0.04 s
DILUPBiCG:  Solving for Ux, Initial residual = 0.00108942, Final residual = 1.38421e-12, No Iterations 3
DILUPBiCG:  Solving for Uy, Initial residual = 0.0841758, Final residual = 2.89911e-10, No Iterations 3
GAMG:  Solving for p_rgh, Initial residual = 1, Final residual = 7.44353e-08, No Iterations 11
GAMG:  Solving for p_rgh, Initial residual = 9.94675e-09, Final residual = 9.94675e-09, No Iterations 0
time step continuity errors : sum local = 1.62591e-08, global = -1.26378e-08, cumulative = -1.26378e-08
GAMG:  Solving for p_rgh, Initial residual = 0.0018222, Final residual = 6.07586e-08, No Iterations 5
GAMG:  Solving for p_rgh, Initial residual = 6.16381e-08, Final residual = 6.16381e-08, No Iterations 0
time step continuity errors : sum local = 9.92014e-08, global = 3.03561e-08, cumulative = 1.77183e-08
GAMG:  Solving for p_rgh, Initial residual = 6.2754e-05, Final residual = 3.56787e-08, No Iterations 2
GAMG:  Solving for p_rgh, Initial residual = 3.57076e-08, Final residual = 4.24642e-09, No Iterations 2
time step continuity errors : sum local = 6.8286e-09, global = 5.52866e-09, cumulative = 2.3247e-08
ExecutionTime = 25.4 s  ClockTime = 25 s

Courant Number mean: 0.0119274 max: 0.182795
Interface Courant Number mean: 0.000443736 max: 0.182795
deltaT = 0.0125926
Time = 5.0237

External step: 0.06 s.
PIMPLE: iteration 1
smoothSolver:  Solving for alpha.water, Initial residual = 0.00030262, Final residual = 4.99906e-10, No Iterations 2
Phase-1 volume fraction = 0.669819  Min(alpha.water) = 0  Max(alpha.water) = 1
MULES: Correcting alpha.water
Phase-1 volume fraction = 0.669819  Min(alpha.water) = 0  Max(alpha.water) = 1
Relaxing time: 0.04 s
DILUPBiCG:  Solving for Ux, Initial residual = 0.0154904, Final residual = 4.08528e-11, No Iterations 3
DILUPBiCG:  Solving for Uy, Initial residual = 0.0261823, Final residual = 7.53474e-11, No Iterations 3
GAMG:  Solving for p_rgh, Initial residual = 0.0210147, Final residual = 6.21646e-08, No Iterations 7
GAMG:  Solving for p_rgh, Initial residual = 6.53403e-08, Final residual = 6.53403e-08, No Iterations 0
time step continuity errors : sum local = 1.21433e-07, global = 3.69937e-08, cumulative = 6.02407e-08
GAMG:  Solving for p_rgh, Initial residual = 0.000439482, Final residual = 5.93714e-08, No Iterations 4
GAMG:  Solving for p_rgh, Initial residual = 5.92087e-08, Final residual = 5.92087e-08, No Iterations 0
time step continuity errors : sum local = 1.10332e-07, global = 7.73517e-08, cumulative = 1.37592e-07
GAMG:  Solving for p_rgh, Initial residual = 1.95518e-05, Final residual = 8.81162e-08, No Iterations 1
GAMG:  Solving for p_rgh, Initial residual = 8.80985e-08, Final residual = 6.03816e-09, No Iterations 2
time step continuity errors : sum local = 1.1254e-08, global = -7.88557e-09, cumulative = 1.29707e-07
ExecutionTime = 25.71 s  ClockTime = 26 s

Courant Number mean: 0.0140494 max: 0.221125
Interface Courant Number mean: 0.000576538 max: 0.221125
deltaT = 0.0135613
Time = 5.03726

External step: 0.06 s.
PIMPLE: iteration 1
smoothSolver:  Solving for alpha.water, Initial residual = 0.000339772, Final residual = 8.86771e-10, No Iterations 2
Phase-1 volume fraction = 0.669859  Min(alpha.water) = 0  Max(alpha.water) = 1
MULES: Correcting alpha.water
Phase-1 volume fraction = 0.669859  Min(alpha.water) = -1.89736e-10  Max(alpha.water) = 1
Relaxing time: 0.04 s
DILUPBiCG:  Solving for Ux, Initial residual = 0.0170362, Final residual = 3.61944e-11, No Iterations 3
DILUPBiCG:  Solving for Uy, Initial residual = 0.0262142, Final residual = 4.33088e-10, No Iterations 3
GAMG:  Solving for p_rgh, Initial residual = 0.0233388, Final residual = 7.98721e-08, No Iterations 6
GAMG:  Solving for p_rgh, Initial residual = 8.13237e-08, Final residual = 8.13237e-08, No Iterations 0
time step continuity errors : sum local = 1.69812e-07, global = 3.89289e-09, cumulative = 1.336e-07
[...]
oceanWave3D: deltaT = 0.00952381 s.

oceanWave3D: Time = 28.1524 s.
oceanWave3D: deltaT = 0.00952381 s.

oceanWave3D: Time = 28.1619 s.
oceanWave3D: deltaT = 0.00952381 s.

oceanWave3D: Time = 28.1714 s.
oceanWave3D: deltaT = 0.00952381 s.

oceanWave3D: Time = 28.181 s.
oceanWave3D: deltaT = 0.00952381 s.

oceanWave3D: Time = 28.1905 s.
oceanWave3D: deltaT = 0.00952381 s.

oceanWave3D: Time = 28.2 s.
oceanWave3D: deltaT = 0.00952381 s.

oceanWave3D: Time = 28.21 s.
oceanWave3D: deltaT = 0.01 s.

oceanWave3D: Time = 28.22 s.
oceanWave3D: deltaT = 0.01 s.

oceanWave3D: Time = 28.23 s.
oceanWave3D: deltaT = 0.01 s.

oceanWave3D: Time = 28.24 s.
oceanWave3D: deltaT = 0.01 s.

oceanWave3D: Time = 28.25 s.
oceanWave3D: deltaT = 0.01 s.

oceanWave3D: Time = 28.26 s.
oceanWave3D: deltaT = 0.01 s.

oceanWave3D: Time = 28.27 s.
oceanWave3D: deltaT = 0.01 s.

oceanWave3D: Time = 28.28 s.
oceanWave3D: deltaT = 0.01 s.

oceanWave3D: Time = 28.29 s.
oceanWave3D: deltaT = 0.01 s.

oceanWave3D: Time = 28.3 s.
oceanWave3D: deltaT = 0.01 s.

oceanWave3D: Time = 28.31 s.
oceanWave3D: deltaT = 0.01 s.

oceanWave3D: Time = 28.32 s.
oceanWave3D: deltaT = 0.01 s.

oceanWave3D: Time = 28.33 s.
oceanWave3D: deltaT = 0.01 s.

oceanWave3D: Time = 28.34 s.
oceanWave3D: deltaT = 0.01 s.

oceanWave3D: Time = 28.35 s.
oceanWave3D: deltaT = 0.01 s.

oceanWave3D: Time = 28.3583 s.
oceanWave3D: deltaT = 0.00833333 s.

oceanWave3D: Time = 28.3667 s.
oceanWave3D: deltaT = 0.00833333 s.

oceanWave3D: Time = 28.375 s.
oceanWave3D: deltaT = 0.00833333 s.

oceanWave3D: Time = 28.3833 s.
oceanWave3D: deltaT = 0.00833333 s.

oceanWave3D: Time = 28.3917 s.
oceanWave3D: deltaT = 0.00833333 s.

oceanWave3D: Time = 28.4 s.
oceanWave3D: deltaT = 0.00833333 s.

oceanWave3D: Time = 28.41 s.
oceanWave3D: deltaT = 0.01 s.

oceanWave3D: Time = 28.42 s.
oceanWave3D: deltaT = 0.01 s.

oceanWave3D: Time = 28.43 s.
oceanWave3D: deltaT = 0.01 s.

oceanWave3D: Time = 28.44 s.
oceanWave3D: deltaT = 0.01 s.

oceanWave3D: Time = 28.45 s.
oceanWave3D: deltaT = 0.01 s.

oceanWave3D: Time = 28.46 s.
oceanWave3D: deltaT = 0.01 s.

oceanWave3D: Time = 28.47 s.
oceanWave3D: deltaT = 0.01 s.

oceanWave3D: Time = 28.48 s.
oceanWave3D: deltaT = 0.01 s.

oceanWave3D: Time = 28.49 s.
oceanWave3D: deltaT = 0.01 s.

oceanWave3D: Time = 28.5 s.
oceanWave3D: deltaT = 0.01 s.

oceanWave3D: Time = 28.51 s.
oceanWave3D: deltaT = 0.01 s.

oceanWave3D: Time = 28.52 s.
oceanWave3D: deltaT = 0.01 s.

oceanWave3D: Time = 28.53 s.
oceanWave3D: deltaT = 0.01 s.

oceanWave3D: Time = 28.5388 s.
oceanWave3D: deltaT = 0.00875 s.

oceanWave3D: Time = 28.5475 s.
oceanWave3D: deltaT = 0.00875 s.

oceanWave3D: Time = 28.5562 s.
oceanWave3D: deltaT = 0.00875 s.

oceanWave3D: Time = 28.565 s.
oceanWave3D: deltaT = 0.00875 s.

oceanWave3D: Time = 28.5737 s.
oceanWave3D: deltaT = 0.00875 s.

oceanWave3D: Time = 28.5825 s.
oceanWave3D: deltaT = 0.00875 s.

oceanWave3D: Time = 28.5913 s.
oceanWave3D: deltaT = 0.00875 s.

oceanWave3D: Time = 28.6 s.
oceanWave3D: deltaT = 0.00875 s.

oceanWave3D: Time = 28.61 s.
oceanWave3D: deltaT = 0.01 s.

 time step number         2650  t=   26.991250000000001     
 An average of    10.26 GMRES iterations done per solve.
   Minimum no.        1 and maximum no.       16 iterations per solve
   Loop no.     2660   Time =   27.0762 sec.
 time step number         2660  t=   27.085714285714285     
 An average of    10.26 GMRES iterations done per solve.
   Minimum no.        1 and maximum no.       16 iterations per solve
   Loop no.     2670   Time =   27.1714 sec.
 time step number         2670  t=   27.180952380952380     
 An average of    10.27 GMRES iterations done per solve.
   Minimum no.        1 and maximum no.       16 iterations per solve
   Loop no.     2680   Time =   27.2700 sec.
 time step number         2680  t=   27.280000000000005     
 An average of    10.27 GMRES iterations done per solve.
   Minimum no.        1 and maximum no.       16 iterations per solve
   Loop no.     2690   Time =   27.3667 sec.
 time step number         2690  t=   27.375000000000000     
 An average of    10.27 GMRES iterations done per solve.
   Minimum no.        1 and maximum no.       16 iterations per solve
   Loop no.     2700   Time =   27.4600 sec.
 time step number         2700  t=   27.470000000000006     
 An average of    10.27 GMRES iterations done per solve.
   Minimum no.        1 and maximum no.       16 iterations per solve
   Loop no.     2710   Time =   27.5562 sec.
 time step number         2710  t=   27.564999999999998     
 An average of    10.27 GMRES iterations done per solve.
   Minimum no.        1 and maximum no.       16 iterations per solve
   Loop no.     2720   Time =   27.6500 sec.
 time step number         2720  t=   27.660000000000004     
 An average of    10.27 GMRES iterations done per solve.
   Minimum no.        1 and maximum no.       16 iterations per solve
   Loop no.     2730   Time =   27.7500 sec.
 time step number         2730  t=   27.758333333333333     
 An average of    10.27 GMRES iterations done per solve.
   Minimum no.        1 and maximum no.       16 iterations per solve
   Loop no.     2740   Time =   27.8400 sec.
 time step number         2740  t=   27.850000000000001     
 An average of    10.27 GMRES iterations done per solve.
   Minimum no.        1 and maximum no.       16 iterations per solve
   Loop no.     2750   Time =   27.9387 sec.
 time step number         2750  t=   27.947499999999998     
 An average of    10.28 GMRES iterations done per solve.
   Minimum no.        1 and maximum no.       16 iterations per solve
   Loop no.     2760   Time =   28.0286 sec.
 time step number         2760  t=   28.038095238095238     
 An average of    10.28 GMRES iterations done per solve.
   Minimum no.        1 and maximum no.       16 iterations per solve
   Loop no.     2770   Time =   28.1238 sec.
 time step number         2770  t=   28.133333333333333     
 An average of    10.29 GMRES iterations done per solve.
   Minimum no.        1 and maximum no.       16 iterations per solve
   Loop no.     2780   Time =   28.2200 sec.
 time step number         2780  t=   28.230000000000004     
 An average of    10.30 GMRES iterations done per solve.
   Minimum no.        1 and maximum no.       16 iterations per solve
   Loop no.     2790   Time =   28.3200 sec.
 time step number         2790  t=   28.330000000000005     
 An average of    10.30 GMRES iterations done per solve.
   Minimum no.        1 and maximum no.       16 iterations per solve
   Loop no.     2800   Time =   28.4100 sec.
 time step number         2800  t=   28.420000000000005     
 An average of    10.30 GMRES iterations done per solve.
   Minimum no.        1 and maximum no.       16 iterations per solve
   Loop no.     2810   Time =   28.5100 sec.
 time step number         2810  t=   28.520000000000003     
 An average of    10.31 GMRES iterations done per solve.
   Minimum no.        1 and maximum no.       16 iterations per solve
   Loop no.     2820   Time =   28.6000 sec.
 time step number         2820  t=   28.610000000000003     
 An average of    10.31 GMRES iterations done per solve.
   Minimum no.        1 and maximum no.       16 iterations per solve
oceanWave3D: Time = 28.62 s.
oceanWave3D: deltaT = 0.01 s.

oceanWave3D: Time = 28.63 s.
oceanWave3D: deltaT = 0.01 s.

oceanWave3D: Time = 28.64 s.
oceanWave3D: deltaT = 0.01 s.

oceanWave3D: Time = 28.65 s.
oceanWave3D: deltaT = 0.01 s.

oceanWave3D: Time = 28.66 s.
oceanWave3D: deltaT = 0.01 s.

oceanWave3D: Time = 28.67 s.
oceanWave3D: deltaT = 0.01 s.

oceanWave3D: Time = 28.68 s.
oceanWave3D: deltaT = 0.01 s.

oceanWave3D: Time = 28.69 s.
oceanWave3D: deltaT = 0.01 s.

oceanWave3D: Time = 28.7 s.
oceanWave3D: deltaT = 0.01 s.

oceanWave3D: Time = 28.71 s.
oceanWave3D: deltaT = 0.01 s.

oceanWave3D: Time = 28.72 s.
oceanWave3D: deltaT = 0.01 s.

oceanWave3D: Time = 28.73 s.
oceanWave3D: deltaT = 0.01 s.

oceanWave3D: Time = 28.74 s.
oceanWave3D: deltaT = 0.01 s.

oceanWave3D: Time = 28.75 s.
oceanWave3D: deltaT = 0.01 s.

oceanWave3D: Time = 28.7583 s.
oceanWave3D: deltaT = 0.00833333 s.

oceanWave3D: Time = 28.7667 s.
oceanWave3D: deltaT = 0.00833333 s.

oceanWave3D: Time = 28.775 s.
oceanWave3D: deltaT = 0.00833333 s.

oceanWave3D: Time = 28.7833 s.
oceanWave3D: deltaT = 0.00833333 s.

oceanWave3D: Time = 28.7917 s.
oceanWave3D: deltaT = 0.00833333 s.

oceanWave3D: Time = 28.8 s.
oceanWave3D: deltaT = 0.00833333 s.

oceanWave3D: Time = 28.81 s.
oceanWave3D: deltaT = 0.01 s.

oceanWave3D: Time = 28.82 s.
oceanWave3D: deltaT = 0.01 s.

oceanWave3D: Time = 28.83 s.
oceanWave3D: deltaT = 0.01 s.

oceanWave3D: Time = 28.84 s.
oceanWave3D: deltaT = 0.01 s.

oceanWave3D: Time = 28.85 s.
oceanWave3D: deltaT = 0.01 s.

oceanWave3D: Time = 28.86 s.
oceanWave3D: deltaT = 0.01 s.

oceanWave3D: Time = 28.87 s.
oceanWave3D: deltaT = 0.01 s.

oceanWave3D: Time = 28.88 s.
oceanWave3D: deltaT = 0.01 s.

oceanWave3D: Time = 28.89 s.
oceanWave3D: deltaT = 0.01 s.

oceanWave3D: Time = 28.9 s.
oceanWave3D: deltaT = 0.01 s.

oceanWave3D: Time = 28.91 s.
oceanWave3D: deltaT = 0.01 s.

oceanWave3D: Time = 28.92 s.
oceanWave3D: deltaT = 0.01 s.

oceanWave3D: Time = 28.93 s.
oceanWave3D: deltaT = 0.01 s.

oceanWave3D: Time = 28.9387 s.
oceanWave3D: deltaT = 0.00875 s.

oceanWave3D: Time = 28.9475 s.
oceanWave3D: deltaT = 0.00875 s.

oceanWave3D: Time = 28.9562 s.
oceanWave3D: deltaT = 0.00875 s.

oceanWave3D: Time = 28.965 s.
oceanWave3D: deltaT = 0.00875 s.

oceanWave3D: Time = 28.9737 s.
oceanWave3D: deltaT = 0.00875 s.

oceanWave3D: Time = 28.9825 s.
oceanWave3D: deltaT = 0.00875 s.

oceanWave3D: Time = 28.9913 s.
oceanWave3D: deltaT = 0.00875 s.

oceanWave3D: Time = 29 s.
oceanWave3D: deltaT = 0.00875 s.

oceanWave3D: Time = 29.0095 s.
oceanWave3D: deltaT = 0.00952381 s.

oceanWave3D: Time = 29.019 s.
oceanWave3D: deltaT = 0.00952381 s.

oceanWave3D: Time = 29.0286 s.
oceanWave3D: deltaT = 0.00952381 s.

oceanWave3D: Time = 29.0381 s.
oceanWave3D: deltaT = 0.00952381 s.

oceanWave3D: Time = 29.0476 s.
oceanWave3D: deltaT = 0.00952381 s.

oceanWave3D: Time = 29.0571 s.
oceanWave3D: deltaT = 0.00952381 s.

oceanWave3D: Time = 29.0667 s.
oceanWave3D: deltaT = 0.00952381 s.

oceanWave3D: Time = 29.0762 s.
oceanWave3D: deltaT = 0.00952381 s.

oceanWave3D: Time = 29.0857 s.
oceanWave3D: deltaT = 0.00952381 s.

oceanWave3D: Time = 29.0952 s.
oceanWave3D: deltaT = 0.00952381 s.

oceanWave3D: Time = 29.1048 s.
oceanWave3D: deltaT = 0.00952381 s.

oceanWave3D: Time = 29.1143 s.
oceanWave3D: deltaT = 0.00952381 s.

oceanWave3D: Time = 29.1238 s.
oceanWave3D: deltaT = 0.00952381 s.

oceanWave3D: Time = 29.1333 s.
oceanWave3D: deltaT = 0.00952381 s.

oceanWave3D: Time = 29.1429 s.
oceanWave3D: deltaT = 0.00952381 s.

oceanWave3D: Time = 29.1524 s.
oceanWave3D: deltaT = 0.00952381 s.

oceanWave3D: Time = 29.1619 s.
oceanWave3D: deltaT = 0.00952381 s.

oceanWave3D: Time = 29.1714 s.
oceanWave3D: deltaT = 0.00952381 s.

oceanWave3D: Time = 29.181 s.
oceanWave3D: deltaT = 0.00952381 s.

oceanWave3D: Time = 29.1905 s.
oceanWave3D: deltaT = 0.00952381 s.

oceanWave3D: Time = 29.2 s.
oceanWave3D: deltaT = 0.00952381 s.

oceanWave3D: Time = 29.21 s.
oceanWave3D: deltaT = 0.01 s.

oceanWave3D: Time = 29.22 s.
oceanWave3D: deltaT = 0.01 s.

oceanWave3D: Time = 29.23 s.
oceanWave3D: deltaT = 0.01 s.

oceanWave3D: Time = 29.24 s.
oceanWave3D: deltaT = 0.01 s.

oceanWave3D: Time = 29.25 s.
oceanWave3D: deltaT = 0.01 s.

oceanWave3D: Time = 29.26 s.
oceanWave3D: deltaT = 0.01 s.

oceanWave3D: Time = 29.27 s.
oceanWave3D: deltaT = 0.01 s.

oceanWave3D: Time = 29.28 s.
oceanWave3D: deltaT = 0.01 s.

oceanWave3D: Time = 29.29 s.
oceanWave3D: deltaT = 0.01 s.

oceanWave3D: Time = 29.3 s.
oceanWave3D: deltaT = 0.01 s.

oceanWave3D: Time = 29.31 s.
oceanWave3D: deltaT = 0.01 s.

oceanWave3D: Time = 29.32 s.
oceanWave3D: deltaT = 0.01 s.

oceanWave3D: Time = 29.33 s.
oceanWave3D: deltaT = 0.01 s.

oceanWave3D: Time = 29.34 s.
oceanWave3D: deltaT = 0.01 s.

oceanWave3D: Time = 29.35 s.
oceanWave3D: deltaT = 0.01 s.

oceanWave3D: Time = 29.3583 s.
oceanWave3D: deltaT = 0.00833333 s.

oceanWave3D: Time = 29.3667 s.
oceanWave3D: deltaT = 0.00833333 s.

oceanWave3D: Time = 29.375 s.
oceanWave3D: deltaT = 0.00833333 s.

oceanWave3D: Time = 29.3833 s.
oceanWave3D: deltaT = 0.00833333 s.

oceanWave3D: Time = 29.3917 s.
oceanWave3D: deltaT = 0.00833333 s.

oceanWave3D: Time = 29.4 s.
oceanWave3D: deltaT = 0.00833333 s.

oceanWave3D: Time = 29.41 s.
oceanWave3D: deltaT = 0.01 s.

oceanWave3D: Time = 29.42 s.
oceanWave3D: deltaT = 0.01 s.

oceanWave3D: Time = 29.43 s.
oceanWave3D: deltaT = 0.01 s.

oceanWave3D: Time = 29.44 s.
oceanWave3D: deltaT = 0.01 s.

oceanWave3D: Time = 29.45 s.
oceanWave3D: deltaT = 0.01 s.

oceanWave3D: Time = 29.46 s.
oceanWave3D: deltaT = 0.01 s.

oceanWave3D: Time = 29.47 s.
oceanWave3D: deltaT = 0.01 s.

oceanWave3D: Time = 29.48 s.
oceanWave3D: deltaT = 0.01 s.

oceanWave3D: Time = 29.49 s.
oceanWave3D: deltaT = 0.01 s.

oceanWave3D: Time = 29.5 s.
oceanWave3D: deltaT = 0.01 s.

oceanWave3D: Time = 29.51 s.
oceanWave3D: deltaT = 0.01 s.

oceanWave3D: Time = 29.52 s.
oceanWave3D: deltaT = 0.01 s.

oceanWave3D: Time = 29.53 s.
oceanWave3D: deltaT = 0.01 s.

oceanWave3D: Time = 29.5388 s.
oceanWave3D: deltaT = 0.00875 s.

oceanWave3D: Time = 29.5475 s.
oceanWave3D: deltaT = 0.00875 s.

oceanWave3D: Time = 29.5562 s.
oceanWave3D: deltaT = 0.00875 s.

oceanWave3D: Time = 29.565 s.
oceanWave3D: deltaT = 0.00875 s.

oceanWave3D: Time = 29.5737 s.
oceanWave3D: deltaT = 0.00875 s.

oceanWave3D: Time = 29.5825 s.
oceanWave3D: deltaT = 0.00875 s.

oceanWave3D: Time = 29.5913 s.
oceanWave3D: deltaT = 0.00875 s.

oceanWave3D: Time = 29.6 s.
oceanWave3D: deltaT = 0.00875 s.

oceanWave3D: Time = 29.61 s.
oceanWave3D: deltaT = 0.01 s.

oceanWave3D: Time = 29.62 s.
oceanWave3D: deltaT = 0.01 s.

oceanWave3D: Time = 29.63 s.
oceanWave3D: deltaT = 0.01 s.

oceanWave3D: Time = 29.64 s.
oceanWave3D: deltaT = 0.01 s.

oceanWave3D: Time = 29.65 s.
oceanWave3D: deltaT = 0.01 s.

oceanWave3D: Time = 29.66 s.
oceanWave3D: deltaT = 0.01 s.

oceanWave3D: Time = 29.67 s.
oceanWave3D: deltaT = 0.01 s.

oceanWave3D: Time = 29.68 s.
oceanWave3D: deltaT = 0.01 s.

oceanWave3D: Time = 29.69 s.
oceanWave3D: deltaT = 0.01 s.

oceanWave3D: Time = 29.7 s.
oceanWave3D: deltaT = 0.01 s.

oceanWave3D: Time = 29.71 s.
oceanWave3D: deltaT = 0.01 s.

oceanWave3D: Time = 29.72 s.
oceanWave3D: deltaT = 0.01 s.

oceanWave3D: Time = 29.73 s.
oceanWave3D: deltaT = 0.01 s.

oceanWave3D: Time = 29.74 s.
oceanWave3D: deltaT = 0.01 s.

oceanWave3D: Time = 29.75 s.
oceanWave3D: deltaT = 0.01 s.

oceanWave3D: Time = 29.7583 s.
oceanWave3D: deltaT = 0.00833333 s.

oceanWave3D: Time = 29.7667 s.
oceanWave3D: deltaT = 0.00833333 s.

oceanWave3D: Time = 29.775 s.
oceanWave3D: deltaT = 0.00833333 s.

oceanWave3D: Time = 29.7833 s.
oceanWave3D: deltaT = 0.00833333 s.

oceanWave3D: Time = 29.7917 s.
oceanWave3D: deltaT = 0.00833333 s.

oceanWave3D: Time = 29.8 s.
oceanWave3D: deltaT = 0.00833333 s.

oceanWave3D: Time = 29.81 s.
oceanWave3D: deltaT = 0.01 s.

oceanWave3D: Time = 29.82 s.
oceanWave3D: deltaT = 0.01 s.

oceanWave3D: Time = 29.83 s.
oceanWave3D: deltaT = 0.01 s.

oceanWave3D: Time = 29.84 s.
oceanWave3D: deltaT = 0.01 s.

oceanWave3D: Time = 29.85 s.
oceanWave3D: deltaT = 0.01 s.

oceanWave3D: Time = 29.86 s.
oceanWave3D: deltaT = 0.01 s.

oceanWave3D: Time = 29.87 s.
oceanWave3D: deltaT = 0.01 s.

oceanWave3D: Time = 29.88 s.
oceanWave3D: deltaT = 0.01 s.

oceanWave3D: Time = 29.89 s.
oceanWave3D: deltaT = 0.01 s.

oceanWave3D: Time = 29.9 s.
oceanWave3D: deltaT = 0.01 s.

oceanWave3D: Time = 29.91 s.
oceanWave3D: deltaT = 0.01 s.

oceanWave3D: Time = 29.92 s.
oceanWave3D: deltaT = 0.01 s.

oceanWave3D: Time = 29.93 s.
oceanWave3D: deltaT = 0.01 s.

oceanWave3D: Time = 29.9387 s.
oceanWave3D: deltaT = 0.00875 s.

oceanWave3D: Time = 29.9475 s.
oceanWave3D: deltaT = 0.00875 s.

oceanWave3D: Time = 29.9562 s.
oceanWave3D: deltaT = 0.00875 s.

oceanWave3D: Time = 29.965 s.
oceanWave3D: deltaT = 0.00875 s.

oceanWave3D: Time = 29.9737 s.
oceanWave3D: deltaT = 0.00875 s.

oceanWave3D: Time = 29.9825 s.
oceanWave3D: deltaT = 0.00875 s.

oceanWave3D: Time = 29.9913 s.
oceanWave3D: deltaT = 0.00875 s.

oceanWave3D: Time = 30 s.
oceanWave3D: deltaT = 0.00875 s.

oceanWave3D: Time = 30.0095 s.
oceanWave3D: deltaT = 0.00952381 s.



--> FOAM FATAL ERROR: 
This is not a FatalError, but it is a simple way to stop the execution. 

    From function void oceanWave3D::step()
    in file waveTheories/externalWaveForcing/oceanWave3D/oceanWave3D.C at line 413.

FOAM exiting

   Loop no.     2830   Time =   28.7000 sec.
 time step number         2830  t=   28.710000000000001     
 An average of    10.31 GMRES iterations done per solve.
   Minimum no.        1 and maximum no.       16 iterations per solve
   Loop no.     2840   Time =   28.7917 sec.
 time step number         2840  t=   28.800000000000001     
 An average of    10.31 GMRES iterations done per solve.
   Minimum no.        1 and maximum no.       16 iterations per solve
   Loop no.     2850   Time =   28.8900 sec.
 time step number         2850  t=   28.900000000000002     
 An average of    10.32 GMRES iterations done per solve.
   Minimum no.        1 and maximum no.       16 iterations per solve
   Loop no.     2860   Time =   28.9825 sec.
 time step number         2860  t=   28.991250000000001     
 An average of    10.32 GMRES iterations done per solve.
   Minimum no.        1 and maximum no.       16 iterations per solve
   Loop no.     2870   Time =   29.0762 sec.
 time step number         2870  t=   29.085714285714285     
 An average of    10.32 GMRES iterations done per solve.
   Minimum no.        1 and maximum no.       16 iterations per solve
   Loop no.     2880   Time =   29.1714 sec.
 time step number         2880  t=   29.180952380952380     
 An average of    10.32 GMRES iterations done per solve.
   Minimum no.        1 and maximum no.       16 iterations per solve
   Loop no.     2890   Time =   29.2700 sec.
 time step number         2890  t=   29.280000000000005     
 An average of    10.32 GMRES iterations done per solve.
   Minimum no.        1 and maximum no.       16 iterations per solve
   Loop no.     2900   Time =   29.3667 sec.
 time step number         2900  t=   29.375000000000000     
 An average of    10.32 GMRES iterations done per solve.
   Minimum no.        1 and maximum no.       16 iterations per solve
   Loop no.     2910   Time =   29.4600 sec.
 time step number         2910  t=   29.470000000000006     
 An average of    10.32 GMRES iterations done per solve.
   Minimum no.        1 and maximum no.       16 iterations per solve
   Loop no.     2920   Time =   29.5562 sec.
 time step number         2920  t=   29.564999999999998     
 An average of    10.32 GMRES iterations done per solve.
   Minimum no.        1 and maximum no.       16 iterations per solve
   Loop no.     2930   Time =   29.6500 sec.
 time step number         2930  t=   29.660000000000004     
 An average of    10.32 GMRES iterations done per solve.
   Minimum no.        1 and maximum no.       16 iterations per solve
   Loop no.     2940   Time =   29.7500 sec.
 time step number         2940  t=   29.758333333333333     
 An average of    10.33 GMRES iterations done per solve.
   Minimum no.        1 and maximum no.       16 iterations per solve
   Loop no.     2950   Time =   29.8400 sec.
 time step number         2950  t=   29.850000000000001     
 An average of    10.33 GMRES iterations done per solve.
   Minimum no.        1 and maximum no.       16 iterations per solve
   Loop no.     2960   Time =   29.9387 sec.
 time step number         2960  t=   29.947499999999998     
 An average of    10.33 GMRES iterations done per solve.
   Minimum no.        1 and maximum no.       16 iterations per solve
