/*---------------------------------------------------------------------------*\
| =========                 |                                                 |
| \\      /  F ield         | OpenFOAM: The Open Source CFD Toolbox           |
|  \\    /   O peration     | Version:  3.0.1                                 |
|   \\  /    A nd           | Web:      www.OpenFOAM.org                      |
|    \\/     M anipulation  |                                                 |
\*---------------------------------------------------------------------------*/
Build  : 3.0.1-d8a290b55d28
Exec   : waveFoam
Date   : Jun 15 2018
Time   : 19:03:52
Host   : "RN1"
PID    : 8448
Case   : /home/rn1/OpenFOAM/rn1-3.0.1/applications/utilities/2-way-coupling/tutorials/waveFoam/test
nProcs : 1
sigFpe : Enabling floating point exception trapping (FOAM_SIGFPE).
fileModificationChecking : Monitoring run-time modified files using timeStampMaster
allowSystemOperations : Allowing user-supplied system call operations

// * * * * * * * * * * * * * * * * * * * * * * * * * * * * * * * * * * * * * //
Create time

Create mesh for time = 0

// using new solver syntax:
pcorr
{
    solver          GAMG;
    tolerance       1e-07;
    relTol          0;
    smoother        DIC;
    nPreSweeps      0;
    nPostSweeps     2;
    nFinestSweeps   2;
    cacheAgglomeration true;
    nCellsInCoarsestLevel 10;
    agglomerator    faceAreaPair;
    mergeLevels     1;
}

// using new solver syntax:
p_rgh
{
    solver          GAMG;
    tolerance       1e-07;
    relTol          0;
    smoother        DIC;
    nPreSweeps      0;
    nPostSweeps     2;
    nFinestSweeps   2;
    cacheAgglomeration true;
    nCellsInCoarsestLevel 10;
    agglomerator    faceAreaPair;
    mergeLevels     1;
}

// using new solver syntax:
p_rghFinal
{
    solver          GAMG;
    tolerance       1e-08;
    relTol          0;
    smoother        DIC;
    nPreSweeps      0;
    nPostSweeps     2;
    nFinestSweeps   2;
    cacheAgglomeration true;
    nCellsInCoarsestLevel 10;
    agglomerator    faceAreaPair;
    mergeLevels     1;
}

// using new solver syntax:
U
{
    solver          PBiCG;
    preconditioner  DILU;
    tolerance       1e-09;
    relTol          0;
}

// using new solver syntax:
UFinal
{
    solver          PBiCG;
    preconditioner  DILU;
    tolerance       1e-09;
    relTol          0;
}

// using new solver syntax:
gamma
{
    solver          PBiCG;
    preconditioner  DILU;
    tolerance       1e-07;
    relTol          0;
}


PIMPLE: Operating solver in PISO mode


Reading g

Reading waveProperties

Reading waveProperties

*********************************************************
***                                                   ***
*** OceanWave3D - a coastal engineering tool for      ***
*** simulation of nonlinear free surface waves.       ***
*** Copyright (C) 2009 Allan P. Engsig-Karup.         ***
***                                                   ***
*** This OceanWave3D program comes with ABSOLUTELY NO ***
*** WARRANTY. It is distributed under the conditions  ***
*** of the GNU General Public License version 3.      ***
***                                                   ***
***     Software library developed in 2009 by         ***
***                                                   ***
***     Allan P. Engsig-Karup                         ***
***     Guillaume Ducrozet                            ***
***                                                   ***
*** At DTU Informatics                                ***
***    Scientific Computing Section                   ***
***    Technical University of Denmark                ***
***                                                   ***
***     Original software library written in 2007 by  ***
***                                                   ***
***     Allan P. Engsig-Karup                         ***
***     Harry B. Bingham                              ***
***                                                   ***
*** At Department of Mechanical Engineering           ***
***    Coastal, Maritime and Structural Eng. Section  ***
***    Technical University of Denmark                ***
***                                                   ***
*********************************************************

   Input file with model parameters : OceanWave3D.inp                         

   Header title.................... : Header                                                                  

   PARAMETER INPUT

   Initial Condition (IC), Predefined :   0

   Local filtering downward vertical acceleration limit is: ********
 * g m/s^2.  Theoretically breaking should occur between 0.5 and 1.


   Bathymetry                         : Predefined (in setup for IC)
   (Nx,Ny,Nz)=(  500,    1,   15)
   Size of dx: .8016E-01

   The problem is without a y-dimension.

   Uneven node-distribution in Z
   Ghost point layer included below bottom.

   Half-width stencils: (alpha,beta,gamma)=( 3, 0, 3)
   Half-width stencils: (alpha,beta,gamma)=( 1, 0, 1) (Preconditioner)
  
 Starting time for this run is    0.0000000000000000     
   Number of time steps chosen:    10000
   Size of time increment: .1000E-01
    Time-integration method: Classical Runge-Kutta fourth order
    GMRES method is chosen.
    Strategy: GMRES + LU (order            2 )
    Tolerance levels user-defined. RelTol =    1.0000000000000000E-008  and AbsTol =    9.9999999999999995E-007
 
   Fully nonlinear model is employed.

 No free-surface pressure term is being applied.  

    SG(          13 ,          10 )-filtering will be employed after every            1  time step.
  
 No breaking model line found, the feature is off.
  
     Total relaxation zones defined:            1
  
 Found            1  pressure damping zones.
   Standard Cartesian model employed.

 format type 1:           0
 FilterInit:  Boundary filtering is turned on with values:
   8.0000000000000002E-002   8.0000000000000002E-002  0.40000000000000002     
  
 Initializing variables and arrays.
 Relaxation zone setup:
  Zone  1: idx=(     2,    65,     1,     1)
   Relaxation zones have been setup.
      SF solution: k=   1.6729156711127393      ,h=  0.40000000000000002      ,H=  0.10000000000000001      ,T=   2.0000000000000000      ,L=   100.00000000000000     
                   kh=  0.66916626844509575      ,c=   50.000000000000000     
 The incident wave is a stream function wave with L=0.375583E+01
  T=0.200000E+01 H=0.100000E+00 u_E=-.156747E-01 and u_S=0.000000E+00


 setup ICs...
 IC chosen is case            0
 Initial condition is still water.
 done with ICs
  
 Pressure damping zone            1  will be applied from x=   30.060120240480963       to x=   40.000000000000000     
OF-time: 0
OCW-time: 0
Interval: [5, 20]
Identical starting times for OceanWave3D and OpenFoam
Reading field p_rgh

Reading field U

Reading/calculating face flux field phi

Reading transportProperties

Selecting incompressible transport model Newtonian
Selecting incompressible transport model Newtonian
Selecting turbulence model type laminar
No MRF models present

No finite volume options present

GAMG:  Solving for pcorr, Initial residual = 1.31981e-291, Final residual = 1.31981e-291, No Iterations 0
GAMG:  Solving for pcorr, Initial residual = 1.31981e-291, Final residual = 1.31981e-291, No Iterations 0
time step continuity errors : sum local = 1.22205e-314, global = -6.1102e-315, cumulative = -6.1102e-315
Courant Number mean: 3.2658e-312 max: 3.27228e-312

Starting time loop

Courant Number mean: 3.2658e-312 max: 3.27228e-312
Interface Courant Number mean: 0 max: 0
deltaT = 0.0011976
Time = 0.0011976

oceanWave3D: Time = 0.00262784 s.
oceanWave3D: deltaT = 0.00143023 s.

oceanWave3D: Time = 0.00432932 s.
oceanWave3D: deltaT = 0.00170148 s.

oceanWave3D: Time = 0.00636756 s.
oceanWave3D: deltaT = 0.00203824 s.

oceanWave3D: Time = 0.00878796 s.
oceanWave3D: deltaT = 0.00242041 s.

oceanWave3D: Time = 0.0116851 s.
oceanWave3D: deltaT = 0.00289715 s.

oceanWave3D: Time = 0.015109 s.
oceanWave3D: deltaT = 0.00342391 s.

oceanWave3D: Time = 0.0191284 s.
oceanWave3D: deltaT = 0.00401937 s.

oceanWave3D: Time = 0.0238882 s.
oceanWave3D: deltaT = 0.00475978 s.

oceanWave3D: Time = 0.0295692 s.
oceanWave3D: deltaT = 0.00568103 s.

oceanWave3D: Time = 0.0361242 s.
oceanWave3D: deltaT = 0.00655503 s.

oceanWave3D: Time = 0.0439278 s.
oceanWave3D: deltaT = 0.00780361 s.

oceanWave3D: Time = 0.0531086 s.
oceanWave3D: deltaT = 0.00918072 s.

oceanWave3D: Time = 0.0629013 s.
oceanWave3D: deltaT = 0.00979276 s.

oceanWave3D: Time = 0.0726941 s.
oceanWave3D: deltaT = 0.00979276 s.

oceanWave3D: Time = 0.0824868 s.
oceanWave3D: deltaT = 0.00979276 s.

oceanWave3D: Time = 0.0922796 s.
oceanWave3D: deltaT = 0.00979276 s.

oceanWave3D: Time = 0.102072 s.
oceanWave3D: deltaT = 0.00979276 s.

oceanWave3D: Time = 0.111865 s.
oceanWave3D: deltaT = 0.00979276 s.

oceanWave3D: Time = 0.121658 s.
oceanWave3D: deltaT = 0.00979276 s.

                                         and from y=   1.0000000000000000       to y=   1.0000000000000000     
  
  
 PreprocessPDampingZones:  Factoring the Laplacian matrix.
  
 Pressure damping zones are set up
  
   Preconditioner: DIRECT LU ( 2 order, linear)
 Building stencils...
   Preconditioning matrix generated.
 workspaceSize =       201151
 Determine finite difference stencils for the system matrix...
 Building stencils...
 ...done!
          -1
           1
    ITERATIVE SOLVER WORKSPACE SIZE =       201151
 A total of       28 GMRES iterations done.
 A total of       14 GMRES iterations done in first time step.
 An average of     7.00 GMRES iterations done per solve.
   Minimum no.        1 and maximum no.        6 iterations per solve
 A total of       42 GMRES iterations done.
 A total of       14 GMRES iterations done in first time step.
 An average of     5.25 GMRES iterations done per solve.
   Minimum no.        1 and maximum no.        6 iterations per solve
 An average of     7.00 GMRES iterations done per solve excluding first time step iteration counts.
   Minimum no.        1 and maximum no.        6 iterations per solve excluding first time step solves
 A total of       57 GMRES iterations done.
 A total of       14 GMRES iterations done in first time step.
 An average of     4.75 GMRES iterations done per solve.
   Minimum no.        1 and maximum no.        7 iterations per solve
 An average of     5.38 GMRES iterations done per solve excluding first time step iteration counts.
   Minimum no.        1 and maximum no.        7 iterations per solve excluding first time step solves
 A total of       72 GMRES iterations done.
 A total of       14 GMRES iterations done in first time step.
 An average of     4.50 GMRES iterations done per solve.
   Minimum no.        1 and maximum no.        7 iterations per solve
 An average of     4.83 GMRES iterations done per solve excluding first time step iteration counts.
   Minimum no.        1 and maximum no.        7 iterations per solve excluding first time step solves
 A total of       89 GMRES iterations done.
 A total of       14 GMRES iterations done in first time step.
 An average of     4.45 GMRES iterations done per solve.
   Minimum no.        1 and maximum no.        7 iterations per solve
 An average of     4.69 GMRES iterations done per solve excluding first time step iteration counts.
   Minimum no.        1 and maximum no.        7 iterations per solve excluding first time step solves
 A total of      106 GMRES iterations done.
 A total of       14 GMRES iterations done in first time step.
 An average of     4.42 GMRES iterations done per solve.
   Minimum no.        1 and maximum no.        7 iterations per solve
 An average of     4.60 GMRES iterations done per solve excluding first time step iteration counts.
   Minimum no.        1 and maximum no.        7 iterations per solve excluding first time step solves
 A total of      123 GMRES iterations done.
 A total of       14 GMRES iterations done in first time step.
 An average of     4.39 GMRES iterations done per solve.
   Minimum no.        1 and maximum no.        7 iterations per solve
 An average of     4.54 GMRES iterations done per solve excluding first time step iteration counts.
   Minimum no.        1 and maximum no.        7 iterations per solve excluding first time step solves
 A total of      141 GMRES iterations done.
 A total of       14 GMRES iterations done in first time step.
 An average of     4.41 GMRES iterations done per solve.
   Minimum no.        1 and maximum no.        8 iterations per solve
 An average of     4.54 GMRES iterations done per solve excluding first time step iteration counts.
   Minimum no.        1 and maximum no.        8 iterations per solve excluding first time step solves
   Loop no.       10   Time =    0.0239 sec.
 time step number           10  t=   2.9569197777794341E-002
 An average of     4.47 GMRES iterations done per solve.
   Minimum no.        1 and maximum no.        8 iterations per solve
   Loop no.       20   Time =    0.1119 sec.
oceanWave3D: Time = 0.131451 s.
oceanWave3D: deltaT = 0.00979276 s.

oceanWave3D: Time = 0.141243 s.
oceanWave3D: deltaT = 0.00979276 s.

oceanWave3D: Time = 0.151036 s.
oceanWave3D: deltaT = 0.00979276 s.

oceanWave3D: Time = 0.160829 s.
oceanWave3D: deltaT = 0.00979276 s.

oceanWave3D: Time = 0.170622 s.
oceanWave3D: deltaT = 0.00979276 s.

oceanWave3D: Time = 0.180414 s.
oceanWave3D: deltaT = 0.00979276 s.

oceanWave3D: Time = 0.190207 s.
oceanWave3D: deltaT = 0.00979276 s.

oceanWave3D: Time = 0.2 s.
oceanWave3D: deltaT = 0.00979276 s.

oceanWave3D: Time = 0.209524 s.
oceanWave3D: deltaT = 0.00952381 s.

oceanWave3D: Time = 0.219048 s.
oceanWave3D: deltaT = 0.00952381 s.

oceanWave3D: Time = 0.228571 s.
oceanWave3D: deltaT = 0.00952381 s.

oceanWave3D: Time = 0.238095 s.
oceanWave3D: deltaT = 0.00952381 s.

oceanWave3D: Time = 0.247619 s.
oceanWave3D: deltaT = 0.00952381 s.

oceanWave3D: Time = 0.257143 s.
oceanWave3D: deltaT = 0.00952381 s.

oceanWave3D: Time = 0.266667 s.
oceanWave3D: deltaT = 0.00952381 s.

oceanWave3D: Time = 0.27619 s.
oceanWave3D: deltaT = 0.00952381 s.

oceanWave3D: Time = 0.285714 s.
oceanWave3D: deltaT = 0.00952381 s.

oceanWave3D: Time = 0.295238 s.
oceanWave3D: deltaT = 0.00952381 s.

oceanWave3D: Time = 0.304762 s.
oceanWave3D: deltaT = 0.00952381 s.

oceanWave3D: Time = 0.314286 s.
oceanWave3D: deltaT = 0.00952381 s.

oceanWave3D: Time = 0.32381 s.
oceanWave3D: deltaT = 0.00952381 s.

oceanWave3D: Time = 0.333333 s.
oceanWave3D: deltaT = 0.00952381 s.

oceanWave3D: Time = 0.342857 s.
oceanWave3D: deltaT = 0.00952381 s.

oceanWave3D: Time = 0.352381 s.
oceanWave3D: deltaT = 0.00952381 s.

oceanWave3D: Time = 0.361905 s.
oceanWave3D: deltaT = 0.00952381 s.

oceanWave3D: Time = 0.371429 s.
oceanWave3D: deltaT = 0.00952381 s.

oceanWave3D: Time = 0.380952 s.
oceanWave3D: deltaT = 0.00952381 s.

oceanWave3D: Time = 0.390476 s.
oceanWave3D: deltaT = 0.00952381 s.

oceanWave3D: Time = 0.4 s.
oceanWave3D: deltaT = 0.00952381 s.

oceanWave3D: Time = 0.409524 s.
oceanWave3D: deltaT = 0.00952381 s.

oceanWave3D: Time = 0.419048 s.
oceanWave3D: deltaT = 0.00952381 s.

oceanWave3D: Time = 0.428571 s.
oceanWave3D: deltaT = 0.00952381 s.

oceanWave3D: Time = 0.438095 s.
oceanWave3D: deltaT = 0.00952381 s.

oceanWave3D: Time = 0.447619 s.
oceanWave3D: deltaT = 0.00952381 s.

oceanWave3D: Time = 0.457143 s.
oceanWave3D: deltaT = 0.00952381 s.

oceanWave3D: Time = 0.466667 s.
oceanWave3D: deltaT = 0.00952381 s.

oceanWave3D: Time = 0.47619 s.
oceanWave3D: deltaT = 0.00952381 s.

oceanWave3D: Time = 0.485714 s.
oceanWave3D: deltaT = 0.00952381 s.

oceanWave3D: Time = 0.495238 s.
oceanWave3D: deltaT = 0.00952381 s.

oceanWave3D: Time = 0.504762 s.
oceanWave3D: deltaT = 0.00952381 s.

oceanWave3D: Time = 0.514286 s.
oceanWave3D: deltaT = 0.00952381 s.

oceanWave3D: Time = 0.52381 s.
oceanWave3D: deltaT = 0.00952381 s.

oceanWave3D: Time = 0.533333 s.
oceanWave3D: deltaT = 0.00952381 s.

oceanWave3D: Time = 0.542857 s.
oceanWave3D: deltaT = 0.00952381 s.

oceanWave3D: Time = 0.552381 s.
oceanWave3D: deltaT = 0.00952381 s.

oceanWave3D: Time = 0.561905 s.
oceanWave3D: deltaT = 0.00952381 s.

oceanWave3D: Time = 0.571429 s.
oceanWave3D: deltaT = 0.00952381 s.

oceanWave3D: Time = 0.580952 s.
oceanWave3D: deltaT = 0.00952381 s.

oceanWave3D: Time = 0.590476 s.
oceanWave3D: deltaT = 0.00952381 s.

oceanWave3D: Time = 0.6 s.
oceanWave3D: deltaT = 0.00952381 s.

oceanWave3D: Time = 0.61 s.
oceanWave3D: deltaT = 0.01 s.

oceanWave3D: Time = 0.62 s.
oceanWave3D: deltaT = 0.01 s.

oceanWave3D: Time = 0.63 s.
oceanWave3D: deltaT = 0.01 s.

oceanWave3D: Time = 0.64 s.
oceanWave3D: deltaT = 0.01 s.

oceanWave3D: Time = 0.65 s.
oceanWave3D: deltaT = 0.01 s.

oceanWave3D: Time = 0.66 s.
oceanWave3D: deltaT = 0.01 s.

oceanWave3D: Time = 0.67 s.
oceanWave3D: deltaT = 0.01 s.

oceanWave3D: Time = 0.68 s.
oceanWave3D: deltaT = 0.01 s.

oceanWave3D: Time = 0.69 s.
oceanWave3D: deltaT = 0.01 s.

oceanWave3D: Time = 0.7 s.
oceanWave3D: deltaT = 0.01 s.

oceanWave3D: Time = 0.71 s.
oceanWave3D: deltaT = 0.01 s.

oceanWave3D: Time = 0.72 s.
oceanWave3D: deltaT = 0.01 s.

oceanWave3D: Time = 0.73 s.
oceanWave3D: deltaT = 0.01 s.

oceanWave3D: Time = 0.74 s.
oceanWave3D: deltaT = 0.01 s.

oceanWave3D: Time = 0.75 s.
oceanWave3D: deltaT = 0.01 s.

oceanWave3D: Time = 0.76 s.
oceanWave3D: deltaT = 0.01 s.

oceanWave3D: Time = 0.77 s.
oceanWave3D: deltaT = 0.01 s.

oceanWave3D: Time = 0.78 s.
oceanWave3D: deltaT = 0.01 s.

oceanWave3D: Time = 0.79 s.
oceanWave3D: deltaT = 0.01 s.

oceanWave3D: Time = 0.8 s.
oceanWave3D: deltaT = 0.01 s.

oceanWave3D: Time = 0.81 s.
oceanWave3D: deltaT = 0.01 s.

oceanWave3D: Time = 0.82 s.
oceanWave3D: deltaT = 0.01 s.

oceanWave3D: Time = 0.83 s.
oceanWave3D: deltaT = 0.01 s.

oceanWave3D: Time = 0.84 s.
oceanWave3D: deltaT = 0.01 s.

oceanWave3D: Time = 0.85 s.
oceanWave3D: deltaT = 0.01 s.

oceanWave3D: Time = 0.86 s.
oceanWave3D: deltaT = 0.01 s.

oceanWave3D: Time = 0.87 s.
oceanWave3D: deltaT = 0.01 s.

oceanWave3D: Time = 0.88 s.
oceanWave3D: deltaT = 0.01 s.

oceanWave3D: Time = 0.89 s.
oceanWave3D: deltaT = 0.01 s.

oceanWave3D: Time = 0.9 s.
oceanWave3D: deltaT = 0.01 s.

oceanWave3D: Time = 0.91 s.
oceanWave3D: deltaT = 0.01 s.

oceanWave3D: Time = 0.92 s.
oceanWave3D: deltaT = 0.01 s.

oceanWave3D: Time = 0.93 s.
oceanWave3D: deltaT = 0.01 s.

oceanWave3D: Time = 0.94 s.
oceanWave3D: deltaT = 0.01 s.

oceanWave3D: Time = 0.95 s.
oceanWave3D: deltaT = 0.01 s.

oceanWave3D: Time = 0.96 s.
oceanWave3D: deltaT = 0.01 s.

oceanWave3D: Time = 0.97 s.
oceanWave3D: deltaT = 0.01 s.

oceanWave3D: Time = 0.98 s.
oceanWave3D: deltaT = 0.01 s.

oceanWave3D: Time = 0.99 s.
oceanWave3D: deltaT = 0.01 s.

oceanWave3D: Time = 1 s.
oceanWave3D: deltaT = 0.01 s.

oceanWave3D: Time = 1.00952 s.
oceanWave3D: deltaT = 0.00952381 s.

oceanWave3D: Time = 1.01905 s.
oceanWave3D: deltaT = 0.00952381 s.

oceanWave3D: Time = 1.02857 s.
oceanWave3D: deltaT = 0.00952381 s.

oceanWave3D: Time = 1.0381 s.
oceanWave3D: deltaT = 0.00952381 s.

oceanWave3D: Time = 1.04762 s.
oceanWave3D: deltaT = 0.00952381 s.

oceanWave3D: Time = 1.05714 s.
oceanWave3D: deltaT = 0.00952381 s.

oceanWave3D: Time = 1.06667 s.
oceanWave3D: deltaT = 0.00952381 s.

oceanWave3D: Time = 1.07619 s.
oceanWave3D: deltaT = 0.00952381 s.

oceanWave3D: Time = 1.08571 s.
oceanWave3D: deltaT = 0.00952381 s.

oceanWave3D: Time = 1.09524 s.
oceanWave3D: deltaT = 0.00952381 s.

oceanWave3D: Time = 1.10476 s.
oceanWave3D: deltaT = 0.00952381 s.

oceanWave3D: Time = 1.11429 s.
oceanWave3D: deltaT = 0.00952381 s.

oceanWave3D: Time = 1.12381 s.
oceanWave3D: deltaT = 0.00952381 s.

oceanWave3D: Time = 1.13333 s.
oceanWave3D: deltaT = 0.00952381 s.

oceanWave3D: Time = 1.14286 s.
oceanWave3D: deltaT = 0.00952381 s.

oceanWave3D: Time = 1.15238 s.
oceanWave3D: deltaT = 0.00952381 s.

oceanWave3D: Time = 1.1619 s.
oceanWave3D: deltaT = 0.00952381 s.

oceanWave3D: Time = 1.17143 s.
oceanWave3D: deltaT = 0.00952381 s.

oceanWave3D: Time = 1.18095 s.
oceanWave3D: deltaT = 0.00952381 s.

oceanWave3D: Time = 1.19048 s.
oceanWave3D: deltaT = 0.00952381 s.

oceanWave3D: Time = 1.2 s.
oceanWave3D: deltaT = 0.00952381 s.

oceanWave3D: Time = 1.21 s.
oceanWave3D: deltaT = 0.01 s.

oceanWave3D: Time = 1.22 s.
oceanWave3D: deltaT = 0.01 s.

oceanWave3D: Time = 1.23 s.
oceanWave3D: deltaT = 0.01 s.

oceanWave3D: Time = 1.24 s.
oceanWave3D: deltaT = 0.01 s.

oceanWave3D: Time = 1.25 s.
oceanWave3D: deltaT = 0.01 s.

oceanWave3D: Time = 1.26 s.
oceanWave3D: deltaT = 0.01 s.

oceanWave3D: Time = 1.27 s.
oceanWave3D: deltaT = 0.01 s.

oceanWave3D: Time = 1.28 s.
oceanWave3D: deltaT = 0.01 s.

oceanWave3D: Time = 1.29 s.
oceanWave3D: deltaT = 0.01 s.

oceanWave3D: Time = 1.3 s.
oceanWave3D: deltaT = 0.01 s.

oceanWave3D: Time = 1.31 s.
oceanWave3D: deltaT = 0.01 s.

oceanWave3D: Time = 1.32 s.
oceanWave3D: deltaT = 0.01 s.

oceanWave3D: Time = 1.33 s.
oceanWave3D: deltaT = 0.01 s.

oceanWave3D: Time = 1.34 s.
oceanWave3D: deltaT = 0.01 s.

oceanWave3D: Time = 1.35 s.
oceanWave3D: deltaT = 0.01 s.

oceanWave3D: Time = 1.36 s.
oceanWave3D: deltaT = 0.01 s.

oceanWave3D: Time = 1.37 s.
oceanWave3D: deltaT = 0.01 s.

oceanWave3D: Time = 1.38 s.
oceanWave3D: deltaT = 0.01 s.

oceanWave3D: Time = 1.39 s.
oceanWave3D: deltaT = 0.01 s.

oceanWave3D: Time = 1.4 s.
oceanWave3D: deltaT = 0.01 s.

oceanWave3D: Time = 1.41 s.
oceanWave3D: deltaT = 0.01 s.

oceanWave3D: Time = 1.42 s.
oceanWave3D: deltaT = 0.01 s.

oceanWave3D: Time = 1.43 s.
oceanWave3D: deltaT = 0.01 s.

oceanWave3D: Time = 1.44 s.
oceanWave3D: deltaT = 0.01 s.

oceanWave3D: Time = 1.45 s.
oceanWave3D: deltaT = 0.01 s.

oceanWave3D: Time = 1.46 s.
oceanWave3D: deltaT = 0.01 s.

oceanWave3D: Time = 1.47 s.
oceanWave3D: deltaT = 0.01 s.

oceanWave3D: Time = 1.48 s.
oceanWave3D: deltaT = 0.01 s.

oceanWave3D: Time = 1.49 s.
oceanWave3D: deltaT = 0.01 s.

oceanWave3D: Time = 1.5 s.
oceanWave3D: deltaT = 0.01 s.

oceanWave3D: Time = 1.51 s.
oceanWave3D: deltaT = 0.01 s.

oceanWave3D: Time = 1.52 s.
oceanWave3D: deltaT = 0.01 s.

oceanWave3D: Time = 1.53 s.
oceanWave3D: deltaT = 0.01 s.

oceanWave3D: Time = 1.54 s.
oceanWave3D: deltaT = 0.01 s.

oceanWave3D: Time = 1.55 s.
oceanWave3D: deltaT = 0.01 s.

oceanWave3D: Time = 1.56 s.
oceanWave3D: deltaT = 0.01 s.

oceanWave3D: Time = 1.57 s.
oceanWave3D: deltaT = 0.01 s.

oceanWave3D: Time = 1.58 s.
oceanWave3D: deltaT = 0.01 s.

oceanWave3D: Time = 1.59 s.
oceanWave3D: deltaT = 0.01 s.

oceanWave3D: Time = 1.6 s.
oceanWave3D: deltaT = 0.01 s.

oceanWave3D: Time = 1.61 s.
oceanWave3D: deltaT = 0.01 s.

oceanWave3D: Time = 1.62 s.
oceanWave3D: deltaT = 0.01 s.

oceanWave3D: Time = 1.63 s.
oceanWave3D: deltaT = 0.01 s.

oceanWave3D: Time = 1.64 s.
oceanWave3D: deltaT = 0.01 s.

oceanWave3D: Time = 1.65 s.
oceanWave3D: deltaT = 0.01 s.

oceanWave3D: Time = 1.66 s.
oceanWave3D: deltaT = 0.01 s.

oceanWave3D: Time = 1.67 s.
oceanWave3D: deltaT = 0.01 s.

oceanWave3D: Time = 1.68 s.
oceanWave3D: deltaT = 0.01 s.

oceanWave3D: Time = 1.69 s.
oceanWave3D: deltaT = 0.01 s.

oceanWave3D: Time = 1.7 s.
oceanWave3D: deltaT = 0.01 s.

oceanWave3D: Time = 1.71 s.
oceanWave3D: deltaT = 0.01 s.

oceanWave3D: Time = 1.72 s.
oceanWave3D: deltaT = 0.01 s.

oceanWave3D: Time = 1.73 s.
oceanWave3D: deltaT = 0.01 s.

oceanWave3D: Time = 1.74 s.
oceanWave3D: deltaT = 0.01 s.

oceanWave3D: Time = 1.75 s.
oceanWave3D: deltaT = 0.01 s.

oceanWave3D: Time = 1.76 s.
oceanWave3D: deltaT = 0.01 s.

oceanWave3D: Time = 1.77 s.
oceanWave3D: deltaT = 0.01 s.

oceanWave3D: Time = 1.78 s.
oceanWave3D: deltaT = 0.01 s.

oceanWave3D: Time = 1.79 s.
oceanWave3D: deltaT = 0.01 s.

 time step number           20  t=  0.12165789454700021     
 An average of     5.26 GMRES iterations done per solve.
   Minimum no.        1 and maximum no.        9 iterations per solve
   Loop no.       30   Time =    0.2095 sec.
 time step number           30  t=  0.21904761904761905     
 An average of     5.63 GMRES iterations done per solve.
   Minimum no.        1 and maximum no.        9 iterations per solve
   Loop no.       40   Time =    0.3048 sec.
 time step number           40  t=  0.31428571428571439     
 An average of     5.85 GMRES iterations done per solve.
   Minimum no.        1 and maximum no.        9 iterations per solve
   Loop no.       50   Time =    0.4000 sec.
 time step number           50  t=  0.40952380952380957     
 An average of     6.02 GMRES iterations done per solve.
   Minimum no.        1 and maximum no.        9 iterations per solve
   Loop no.       60   Time =    0.4952 sec.
 time step number           60  t=  0.50476190476190486     
 An average of     6.14 GMRES iterations done per solve.
   Minimum no.        1 and maximum no.        9 iterations per solve
   Loop no.       70   Time =    0.5905 sec.
 time step number           70  t=  0.60000000000000009     
 An average of     6.23 GMRES iterations done per solve.
   Minimum no.        1 and maximum no.        9 iterations per solve
   Loop no.       80   Time =    0.6900 sec.
 time step number           80  t=  0.70000000000000018     
 An average of     6.32 GMRES iterations done per solve.
   Minimum no.        1 and maximum no.       10 iterations per solve
   Loop no.       90   Time =    0.7900 sec.
 time step number           90  t=  0.80000000000000004     
 An average of     6.41 GMRES iterations done per solve.
   Minimum no.        1 and maximum no.       10 iterations per solve
   Loop no.      100   Time =    0.8900 sec.
 time step number          100  t=  0.90000000000000013     
 An average of     6.52 GMRES iterations done per solve.
   Minimum no.        1 and maximum no.       10 iterations per solve
   Loop no.      110   Time =    0.9900 sec.
 time step number          110  t=   1.0000000000000000     
 An average of     6.61 GMRES iterations done per solve.
   Minimum no.        1 and maximum no.       10 iterations per solve
   Loop no.      120   Time =    1.0857 sec.
 time step number          120  t=   1.0952380952380949     
 An average of     6.68 GMRES iterations done per solve.
   Minimum no.        1 and maximum no.       10 iterations per solve
   Loop no.      130   Time =    1.1810 sec.
 time step number          130  t=   1.1904761904761907     
 An average of     6.76 GMRES iterations done per solve.
   Minimum no.        1 and maximum no.       11 iterations per solve
   Loop no.      140   Time =    1.2800 sec.
 time step number          140  t=   1.2900000000000003     
 An average of     6.84 GMRES iterations done per solve.
   Minimum no.        1 and maximum no.       11 iterations per solve
   Loop no.      150   Time =    1.3800 sec.
 time step number          150  t=   1.3900000000000001     
 An average of     6.92 GMRES iterations done per solve.
   Minimum no.        1 and maximum no.       11 iterations per solve
   Loop no.      160   Time =    1.4800 sec.
 time step number          160  t=   1.4900000000000002     
 An average of     6.99 GMRES iterations done per solve.
   Minimum no.        1 and maximum no.       11 iterations per solve
   Loop no.      170   Time =    1.5800 sec.
 time step number          170  t=   1.5900000000000003     
 An average of     7.03 GMRES iterations done per solve.
   Minimum no.        1 and maximum no.       11 iterations per solve
   Loop no.      180   Time =    1.6800 sec.
 time step number          180  t=   1.6900000000000002     
 An average of     7.07 GMRES iterations done per solve.
   Minimum no.        1 and maximum no.       11 iterations per solve
   Loop no.      190   Time =    1.7800 sec.
 time step number          190  t=   1.7900000000000000     
 An average of     7.12 GMRES iterations done per solve.
   Minimum no.        1 and maximum no.       11 iterations per solve
oceanWave3D: Time = 1.8 s.
oceanWave3D: deltaT = 0.01 s.

oceanWave3D: Time = 1.81 s.
oceanWave3D: deltaT = 0.01 s.

oceanWave3D: Time = 1.82 s.
oceanWave3D: deltaT = 0.01 s.

oceanWave3D: Time = 1.83 s.
oceanWave3D: deltaT = 0.01 s.

oceanWave3D: Time = 1.84 s.
oceanWave3D: deltaT = 0.01 s.

oceanWave3D: Time = 1.85 s.
oceanWave3D: deltaT = 0.01 s.

oceanWave3D: Time = 1.86 s.
oceanWave3D: deltaT = 0.01 s.

oceanWave3D: Time = 1.87 s.
oceanWave3D: deltaT = 0.01 s.

oceanWave3D: Time = 1.88 s.
oceanWave3D: deltaT = 0.01 s.

oceanWave3D: Time = 1.89 s.
oceanWave3D: deltaT = 0.01 s.

oceanWave3D: Time = 1.9 s.
oceanWave3D: deltaT = 0.01 s.

oceanWave3D: Time = 1.91 s.
oceanWave3D: deltaT = 0.01 s.

oceanWave3D: Time = 1.92 s.
oceanWave3D: deltaT = 0.01 s.

oceanWave3D: Time = 1.93 s.
oceanWave3D: deltaT = 0.01 s.

oceanWave3D: Time = 1.94 s.
oceanWave3D: deltaT = 0.01 s.

oceanWave3D: Time = 1.95 s.
oceanWave3D: deltaT = 0.01 s.

oceanWave3D: Time = 1.96 s.
oceanWave3D: deltaT = 0.01 s.

oceanWave3D: Time = 1.97 s.
oceanWave3D: deltaT = 0.01 s.

oceanWave3D: Time = 1.98 s.
oceanWave3D: deltaT = 0.01 s.

oceanWave3D: Time = 1.99 s.
oceanWave3D: deltaT = 0.01 s.

oceanWave3D: Time = 2 s.
oceanWave3D: deltaT = 0.01 s.

oceanWave3D: Time = 2.00952 s.
oceanWave3D: deltaT = 0.00952381 s.

oceanWave3D: Time = 2.01905 s.
oceanWave3D: deltaT = 0.00952381 s.

oceanWave3D: Time = 2.02857 s.
oceanWave3D: deltaT = 0.00952381 s.

oceanWave3D: Time = 2.0381 s.
oceanWave3D: deltaT = 0.00952381 s.

oceanWave3D: Time = 2.04762 s.
oceanWave3D: deltaT = 0.00952381 s.

oceanWave3D: Time = 2.05714 s.
oceanWave3D: deltaT = 0.00952381 s.

oceanWave3D: Time = 2.06667 s.
oceanWave3D: deltaT = 0.00952381 s.

oceanWave3D: Time = 2.07619 s.
oceanWave3D: deltaT = 0.00952381 s.

oceanWave3D: Time = 2.08571 s.
oceanWave3D: deltaT = 0.00952381 s.

oceanWave3D: Time = 2.09524 s.
oceanWave3D: deltaT = 0.00952381 s.

oceanWave3D: Time = 2.10476 s.
oceanWave3D: deltaT = 0.00952381 s.

oceanWave3D: Time = 2.11429 s.
oceanWave3D: deltaT = 0.00952381 s.

oceanWave3D: Time = 2.12381 s.
oceanWave3D: deltaT = 0.00952381 s.

oceanWave3D: Time = 2.13333 s.
oceanWave3D: deltaT = 0.00952381 s.

oceanWave3D: Time = 2.14286 s.
oceanWave3D: deltaT = 0.00952381 s.

oceanWave3D: Time = 2.15238 s.
oceanWave3D: deltaT = 0.00952381 s.

oceanWave3D: Time = 2.1619 s.
oceanWave3D: deltaT = 0.00952381 s.

oceanWave3D: Time = 2.17143 s.
oceanWave3D: deltaT = 0.00952381 s.

oceanWave3D: Time = 2.18095 s.
oceanWave3D: deltaT = 0.00952381 s.

oceanWave3D: Time = 2.19048 s.
oceanWave3D: deltaT = 0.00952381 s.

oceanWave3D: Time = 2.2 s.
oceanWave3D: deltaT = 0.00952381 s.

oceanWave3D: Time = 2.20952 s.
oceanWave3D: deltaT = 0.00952381 s.

oceanWave3D: Time = 2.21905 s.
oceanWave3D: deltaT = 0.00952381 s.

oceanWave3D: Time = 2.22857 s.
oceanWave3D: deltaT = 0.00952381 s.

oceanWave3D: Time = 2.2381 s.
oceanWave3D: deltaT = 0.00952381 s.

oceanWave3D: Time = 2.24762 s.
oceanWave3D: deltaT = 0.00952381 s.

oceanWave3D: Time = 2.25714 s.
oceanWave3D: deltaT = 0.00952381 s.

oceanWave3D: Time = 2.26667 s.
oceanWave3D: deltaT = 0.00952381 s.

oceanWave3D: Time = 2.27619 s.
oceanWave3D: deltaT = 0.00952381 s.

oceanWave3D: Time = 2.28571 s.
oceanWave3D: deltaT = 0.00952381 s.

oceanWave3D: Time = 2.29524 s.
oceanWave3D: deltaT = 0.00952381 s.

oceanWave3D: Time = 2.30476 s.
oceanWave3D: deltaT = 0.00952381 s.

oceanWave3D: Time = 2.31429 s.
oceanWave3D: deltaT = 0.00952381 s.

oceanWave3D: Time = 2.32381 s.
oceanWave3D: deltaT = 0.00952381 s.

oceanWave3D: Time = 2.33333 s.
oceanWave3D: deltaT = 0.00952381 s.

oceanWave3D: Time = 2.34286 s.
oceanWave3D: deltaT = 0.00952381 s.

oceanWave3D: Time = 2.35238 s.
oceanWave3D: deltaT = 0.00952381 s.

oceanWave3D: Time = 2.3619 s.
oceanWave3D: deltaT = 0.00952381 s.

oceanWave3D: Time = 2.37143 s.
oceanWave3D: deltaT = 0.00952381 s.

oceanWave3D: Time = 2.38095 s.
oceanWave3D: deltaT = 0.00952381 s.

oceanWave3D: Time = 2.39048 s.
oceanWave3D: deltaT = 0.00952381 s.

oceanWave3D: Time = 2.4 s.
oceanWave3D: deltaT = 0.00952381 s.

oceanWave3D: Time = 2.41 s.
oceanWave3D: deltaT = 0.01 s.

oceanWave3D: Time = 2.42 s.
oceanWave3D: deltaT = 0.01 s.

oceanWave3D: Time = 2.42947 s.
oceanWave3D: deltaT = 0.00947368 s.

oceanWave3D: Time = 2.43895 s.
oceanWave3D: deltaT = 0.00947368 s.

oceanWave3D: Time = 2.44842 s.
oceanWave3D: deltaT = 0.00947368 s.

oceanWave3D: Time = 2.45789 s.
oceanWave3D: deltaT = 0.00947368 s.

oceanWave3D: Time = 2.46737 s.
oceanWave3D: deltaT = 0.00947368 s.

oceanWave3D: Time = 2.47684 s.
oceanWave3D: deltaT = 0.00947368 s.

oceanWave3D: Time = 2.48632 s.
oceanWave3D: deltaT = 0.00947368 s.

oceanWave3D: Time = 2.49579 s.
oceanWave3D: deltaT = 0.00947368 s.

oceanWave3D: Time = 2.50526 s.
oceanWave3D: deltaT = 0.00947368 s.

oceanWave3D: Time = 2.51474 s.
oceanWave3D: deltaT = 0.00947368 s.

oceanWave3D: Time = 2.52421 s.
oceanWave3D: deltaT = 0.00947368 s.

oceanWave3D: Time = 2.53368 s.
oceanWave3D: deltaT = 0.00947368 s.

oceanWave3D: Time = 2.54316 s.
oceanWave3D: deltaT = 0.00947368 s.

oceanWave3D: Time = 2.55263 s.
oceanWave3D: deltaT = 0.00947368 s.

oceanWave3D: Time = 2.56211 s.
oceanWave3D: deltaT = 0.00947368 s.

oceanWave3D: Time = 2.57158 s.
oceanWave3D: deltaT = 0.00947368 s.

oceanWave3D: Time = 2.58105 s.
oceanWave3D: deltaT = 0.00947368 s.

oceanWave3D: Time = 2.59053 s.
oceanWave3D: deltaT = 0.00947368 s.

oceanWave3D: Time = 2.6 s.
oceanWave3D: deltaT = 0.00947368 s.

oceanWave3D: Time = 2.60952 s.
oceanWave3D: deltaT = 0.00952381 s.

oceanWave3D: Time = 2.61905 s.
oceanWave3D: deltaT = 0.00952381 s.

oceanWave3D: Time = 2.62857 s.
oceanWave3D: deltaT = 0.00952381 s.

oceanWave3D: Time = 2.6381 s.
oceanWave3D: deltaT = 0.00952381 s.

oceanWave3D: Time = 2.64762 s.
oceanWave3D: deltaT = 0.00952381 s.

oceanWave3D: Time = 2.65714 s.
oceanWave3D: deltaT = 0.00952381 s.

oceanWave3D: Time = 2.66667 s.
oceanWave3D: deltaT = 0.00952381 s.

oceanWave3D: Time = 2.67619 s.
oceanWave3D: deltaT = 0.00952381 s.

oceanWave3D: Time = 2.68571 s.
oceanWave3D: deltaT = 0.00952381 s.

oceanWave3D: Time = 2.69524 s.
oceanWave3D: deltaT = 0.00952381 s.

oceanWave3D: Time = 2.70476 s.
oceanWave3D: deltaT = 0.00952381 s.

oceanWave3D: Time = 2.71429 s.
oceanWave3D: deltaT = 0.00952381 s.

oceanWave3D: Time = 2.72381 s.
oceanWave3D: deltaT = 0.00952381 s.

oceanWave3D: Time = 2.73333 s.
oceanWave3D: deltaT = 0.00952381 s.

oceanWave3D: Time = 2.74286 s.
oceanWave3D: deltaT = 0.00952381 s.

oceanWave3D: Time = 2.75238 s.
oceanWave3D: deltaT = 0.00952381 s.

oceanWave3D: Time = 2.7619 s.
oceanWave3D: deltaT = 0.00952381 s.

oceanWave3D: Time = 2.77143 s.
oceanWave3D: deltaT = 0.00952381 s.

oceanWave3D: Time = 2.78095 s.
oceanWave3D: deltaT = 0.00952381 s.

oceanWave3D: Time = 2.79048 s.
oceanWave3D: deltaT = 0.00952381 s.

oceanWave3D: Time = 2.8 s.
oceanWave3D: deltaT = 0.00952381 s.

oceanWave3D: Time = 2.81 s.
oceanWave3D: deltaT = 0.01 s.

oceanWave3D: Time = 2.82 s.
oceanWave3D: deltaT = 0.01 s.

oceanWave3D: Time = 2.82947 s.
oceanWave3D: deltaT = 0.00947368 s.

oceanWave3D: Time = 2.83895 s.
oceanWave3D: deltaT = 0.00947368 s.

oceanWave3D: Time = 2.84842 s.
oceanWave3D: deltaT = 0.00947368 s.

oceanWave3D: Time = 2.85789 s.
oceanWave3D: deltaT = 0.00947368 s.

oceanWave3D: Time = 2.86737 s.
oceanWave3D: deltaT = 0.00947368 s.

oceanWave3D: Time = 2.87684 s.
oceanWave3D: deltaT = 0.00947368 s.

oceanWave3D: Time = 2.88632 s.
oceanWave3D: deltaT = 0.00947368 s.

oceanWave3D: Time = 2.89579 s.
oceanWave3D: deltaT = 0.00947368 s.

oceanWave3D: Time = 2.90526 s.
oceanWave3D: deltaT = 0.00947368 s.

oceanWave3D: Time = 2.91474 s.
oceanWave3D: deltaT = 0.00947368 s.

oceanWave3D: Time = 2.92421 s.
oceanWave3D: deltaT = 0.00947368 s.

oceanWave3D: Time = 2.93368 s.
oceanWave3D: deltaT = 0.00947368 s.

oceanWave3D: Time = 2.94316 s.
oceanWave3D: deltaT = 0.00947368 s.

oceanWave3D: Time = 2.95263 s.
oceanWave3D: deltaT = 0.00947368 s.

oceanWave3D: Time = 2.96211 s.
oceanWave3D: deltaT = 0.00947368 s.

oceanWave3D: Time = 2.97158 s.
oceanWave3D: deltaT = 0.00947368 s.

oceanWave3D: Time = 2.98105 s.
oceanWave3D: deltaT = 0.00947368 s.

oceanWave3D: Time = 2.99053 s.
oceanWave3D: deltaT = 0.00947368 s.

oceanWave3D: Time = 3 s.
oceanWave3D: deltaT = 0.00947368 s.

oceanWave3D: Time = 3.00952 s.
oceanWave3D: deltaT = 0.00952381 s.

oceanWave3D: Time = 3.01905 s.
oceanWave3D: deltaT = 0.00952381 s.

oceanWave3D: Time = 3.02857 s.
oceanWave3D: deltaT = 0.00952381 s.

oceanWave3D: Time = 3.0381 s.
oceanWave3D: deltaT = 0.00952381 s.

oceanWave3D: Time = 3.04762 s.
oceanWave3D: deltaT = 0.00952381 s.

oceanWave3D: Time = 3.05714 s.
oceanWave3D: deltaT = 0.00952381 s.

oceanWave3D: Time = 3.06667 s.
oceanWave3D: deltaT = 0.00952381 s.

oceanWave3D: Time = 3.07619 s.
oceanWave3D: deltaT = 0.00952381 s.

oceanWave3D: Time = 3.08571 s.
oceanWave3D: deltaT = 0.00952381 s.

oceanWave3D: Time = 3.09524 s.
oceanWave3D: deltaT = 0.00952381 s.

oceanWave3D: Time = 3.10476 s.
oceanWave3D: deltaT = 0.00952381 s.

oceanWave3D: Time = 3.11429 s.
oceanWave3D: deltaT = 0.00952381 s.

oceanWave3D: Time = 3.12381 s.
oceanWave3D: deltaT = 0.00952381 s.

oceanWave3D: Time = 3.13333 s.
oceanWave3D: deltaT = 0.00952381 s.

oceanWave3D: Time = 3.14286 s.
oceanWave3D: deltaT = 0.00952381 s.

oceanWave3D: Time = 3.15238 s.
oceanWave3D: deltaT = 0.00952381 s.

oceanWave3D: Time = 3.1619 s.
oceanWave3D: deltaT = 0.00952381 s.

oceanWave3D: Time = 3.17143 s.
oceanWave3D: deltaT = 0.00952381 s.

oceanWave3D: Time = 3.18095 s.
oceanWave3D: deltaT = 0.00952381 s.

oceanWave3D: Time = 3.19048 s.
oceanWave3D: deltaT = 0.00952381 s.

oceanWave3D: Time = 3.2 s.
oceanWave3D: deltaT = 0.00952381 s.

oceanWave3D: Time = 3.20952 s.
oceanWave3D: deltaT = 0.00952381 s.

oceanWave3D: Time = 3.21905 s.
oceanWave3D: deltaT = 0.00952381 s.

oceanWave3D: Time = 3.22857 s.
oceanWave3D: deltaT = 0.00952381 s.

oceanWave3D: Time = 3.2381 s.
oceanWave3D: deltaT = 0.00952381 s.

oceanWave3D: Time = 3.24762 s.
oceanWave3D: deltaT = 0.00952381 s.

oceanWave3D: Time = 3.25714 s.
oceanWave3D: deltaT = 0.00952381 s.

oceanWave3D: Time = 3.26667 s.
oceanWave3D: deltaT = 0.00952381 s.

oceanWave3D: Time = 3.27619 s.
oceanWave3D: deltaT = 0.00952381 s.

oceanWave3D: Time = 3.28571 s.
oceanWave3D: deltaT = 0.00952381 s.

oceanWave3D: Time = 3.29524 s.
oceanWave3D: deltaT = 0.00952381 s.

oceanWave3D: Time = 3.30476 s.
oceanWave3D: deltaT = 0.00952381 s.

oceanWave3D: Time = 3.31429 s.
oceanWave3D: deltaT = 0.00952381 s.

oceanWave3D: Time = 3.32381 s.
oceanWave3D: deltaT = 0.00952381 s.

oceanWave3D: Time = 3.33333 s.
oceanWave3D: deltaT = 0.00952381 s.

oceanWave3D: Time = 3.34286 s.
oceanWave3D: deltaT = 0.00952381 s.

oceanWave3D: Time = 3.35238 s.
oceanWave3D: deltaT = 0.00952381 s.

oceanWave3D: Time = 3.3619 s.
oceanWave3D: deltaT = 0.00952381 s.

oceanWave3D: Time = 3.37143 s.
oceanWave3D: deltaT = 0.00952381 s.

oceanWave3D: Time = 3.38095 s.
oceanWave3D: deltaT = 0.00952381 s.

oceanWave3D: Time = 3.39048 s.
oceanWave3D: deltaT = 0.00952381 s.

oceanWave3D: Time = 3.4 s.
oceanWave3D: deltaT = 0.00952381 s.

oceanWave3D: Time = 3.41 s.
oceanWave3D: deltaT = 0.01 s.

oceanWave3D: Time = 3.42 s.
oceanWave3D: deltaT = 0.01 s.

oceanWave3D: Time = 3.42947 s.
oceanWave3D: deltaT = 0.00947368 s.

oceanWave3D: Time = 3.43895 s.
oceanWave3D: deltaT = 0.00947368 s.

oceanWave3D: Time = 3.44842 s.
oceanWave3D: deltaT = 0.00947368 s.

oceanWave3D: Time = 3.45789 s.
oceanWave3D: deltaT = 0.00947368 s.

oceanWave3D: Time = 3.46737 s.
oceanWave3D: deltaT = 0.00947368 s.

oceanWave3D: Time = 3.47684 s.
oceanWave3D: deltaT = 0.00947368 s.

oceanWave3D: Time = 3.48632 s.
oceanWave3D: deltaT = 0.00947368 s.

oceanWave3D: Time = 3.49579 s.
oceanWave3D: deltaT = 0.00947368 s.

oceanWave3D: Time = 3.50526 s.
oceanWave3D: deltaT = 0.00947368 s.

oceanWave3D: Time = 3.51474 s.
oceanWave3D: deltaT = 0.00947368 s.

   Loop no.      200   Time =    1.8800 sec.
 time step number          200  t=   1.8900000000000001     
 An average of     7.16 GMRES iterations done per solve.
   Minimum no.        1 and maximum no.       11 iterations per solve
   Loop no.      210   Time =    1.9800 sec.
 time step number          210  t=   1.9900000000000002     
 An average of     7.22 GMRES iterations done per solve.
   Minimum no.        1 and maximum no.       11 iterations per solve
   Loop no.      220   Time =    2.0762 sec.
 time step number          220  t=   2.0857142857142854     
 An average of     7.28 GMRES iterations done per solve.
   Minimum no.        1 and maximum no.       12 iterations per solve
   Loop no.      230   Time =    2.1714 sec.
 time step number          230  t=   2.1809523809523808     
 An average of     7.36 GMRES iterations done per solve.
   Minimum no.        1 and maximum no.       12 iterations per solve
   Loop no.      240   Time =    2.2667 sec.
 time step number          240  t=   2.2761904761904761     
 An average of     7.43 GMRES iterations done per solve.
   Minimum no.        1 and maximum no.       12 iterations per solve
   Loop no.      250   Time =    2.3619 sec.
 time step number          250  t=   2.3714285714285710     
 An average of     7.49 GMRES iterations done per solve.
   Minimum no.        1 and maximum no.       12 iterations per solve
   Loop no.      260   Time =    2.4579 sec.
 time step number          260  t=   2.4673684210526314     
 An average of     7.52 GMRES iterations done per solve.
   Minimum no.        1 and maximum no.       12 iterations per solve
   Loop no.      270   Time =    2.5526 sec.
 time step number          270  t=   2.5621052631578944     
 An average of     7.54 GMRES iterations done per solve.
   Minimum no.        1 and maximum no.       12 iterations per solve
   Loop no.      280   Time =    2.6476 sec.
 time step number          280  t=   2.6571428571428570     
 An average of     7.57 GMRES iterations done per solve.
   Minimum no.        1 and maximum no.       12 iterations per solve
   Loop no.      290   Time =    2.7429 sec.
 time step number          290  t=   2.7523809523809519     
 An average of     7.61 GMRES iterations done per solve.
   Minimum no.        1 and maximum no.       12 iterations per solve
   Loop no.      300   Time =    2.8389 sec.
 time step number          300  t=   2.8484210526315787     
 An average of     7.65 GMRES iterations done per solve.
   Minimum no.        1 and maximum no.       12 iterations per solve
   Loop no.      310   Time =    2.9337 sec.
 time step number          310  t=   2.9431578947368418     
 An average of     7.70 GMRES iterations done per solve.
   Minimum no.        1 and maximum no.       12 iterations per solve
   Loop no.      320   Time =    3.0286 sec.
 time step number          320  t=   3.0380952380952380     
 An average of     7.75 GMRES iterations done per solve.
   Minimum no.        1 and maximum no.       12 iterations per solve
   Loop no.      330   Time =    3.1238 sec.
 time step number          330  t=   3.1333333333333329     
 An average of     7.80 GMRES iterations done per solve.
   Minimum no.        1 and maximum no.       12 iterations per solve
   Loop no.      340   Time =    3.2190 sec.
 time step number          340  t=   3.2285714285714286     
 An average of     7.84 GMRES iterations done per solve.
   Minimum no.        1 and maximum no.       12 iterations per solve
   Loop no.      350   Time =    3.3143 sec.
 time step number          350  t=   3.3238095238095235     
 An average of     7.88 GMRES iterations done per solve.
   Minimum no.        1 and maximum no.       12 iterations per solve
   Loop no.      360   Time =    3.4100 sec.
 time step number          360  t=   3.4199999999999999     
 An average of     7.91 GMRES iterations done per solve.
   Minimum no.        1 and maximum no.       12 iterations per solve
   Loop no.      370   Time =    3.5053 sec.
 time step number          370  t=   3.5147368421052629     
 An average of     7.94 GMRES iterations done per solve.
oceanWave3D: Time = 3.52421 s.
oceanWave3D: deltaT = 0.00947368 s.

oceanWave3D: Time = 3.53368 s.
oceanWave3D: deltaT = 0.00947368 s.

oceanWave3D: Time = 3.54316 s.
oceanWave3D: deltaT = 0.00947368 s.

oceanWave3D: Time = 3.55263 s.
oceanWave3D: deltaT = 0.00947368 s.

oceanWave3D: Time = 3.56211 s.
oceanWave3D: deltaT = 0.00947368 s.

oceanWave3D: Time = 3.57158 s.
oceanWave3D: deltaT = 0.00947368 s.

oceanWave3D: Time = 3.58105 s.
oceanWave3D: deltaT = 0.00947368 s.

oceanWave3D: Time = 3.59053 s.
oceanWave3D: deltaT = 0.00947368 s.

oceanWave3D: Time = 3.6 s.
oceanWave3D: deltaT = 0.00947368 s.

oceanWave3D: Time = 3.60952 s.
oceanWave3D: deltaT = 0.00952381 s.

oceanWave3D: Time = 3.61905 s.
oceanWave3D: deltaT = 0.00952381 s.

oceanWave3D: Time = 3.62857 s.
oceanWave3D: deltaT = 0.00952381 s.

oceanWave3D: Time = 3.6381 s.
oceanWave3D: deltaT = 0.00952381 s.

oceanWave3D: Time = 3.64762 s.
oceanWave3D: deltaT = 0.00952381 s.

oceanWave3D: Time = 3.65714 s.
oceanWave3D: deltaT = 0.00952381 s.

oceanWave3D: Time = 3.66667 s.
oceanWave3D: deltaT = 0.00952381 s.

oceanWave3D: Time = 3.67619 s.
oceanWave3D: deltaT = 0.00952381 s.

oceanWave3D: Time = 3.68571 s.
oceanWave3D: deltaT = 0.00952381 s.

oceanWave3D: Time = 3.69524 s.
oceanWave3D: deltaT = 0.00952381 s.

oceanWave3D: Time = 3.70476 s.
oceanWave3D: deltaT = 0.00952381 s.

oceanWave3D: Time = 3.71429 s.
oceanWave3D: deltaT = 0.00952381 s.

oceanWave3D: Time = 3.72381 s.
oceanWave3D: deltaT = 0.00952381 s.

oceanWave3D: Time = 3.73333 s.
oceanWave3D: deltaT = 0.00952381 s.

oceanWave3D: Time = 3.74286 s.
oceanWave3D: deltaT = 0.00952381 s.

oceanWave3D: Time = 3.75238 s.
oceanWave3D: deltaT = 0.00952381 s.

oceanWave3D: Time = 3.7619 s.
oceanWave3D: deltaT = 0.00952381 s.

oceanWave3D: Time = 3.77143 s.
oceanWave3D: deltaT = 0.00952381 s.

oceanWave3D: Time = 3.78095 s.
oceanWave3D: deltaT = 0.00952381 s.

oceanWave3D: Time = 3.79048 s.
oceanWave3D: deltaT = 0.00952381 s.

oceanWave3D: Time = 3.8 s.
oceanWave3D: deltaT = 0.00952381 s.

oceanWave3D: Time = 3.81 s.
oceanWave3D: deltaT = 0.01 s.

oceanWave3D: Time = 3.82 s.
oceanWave3D: deltaT = 0.01 s.

oceanWave3D: Time = 3.82947 s.
oceanWave3D: deltaT = 0.00947368 s.

oceanWave3D: Time = 3.83895 s.
oceanWave3D: deltaT = 0.00947368 s.

oceanWave3D: Time = 3.84842 s.
oceanWave3D: deltaT = 0.00947368 s.

oceanWave3D: Time = 3.85789 s.
oceanWave3D: deltaT = 0.00947368 s.

oceanWave3D: Time = 3.86737 s.
oceanWave3D: deltaT = 0.00947368 s.

oceanWave3D: Time = 3.87684 s.
oceanWave3D: deltaT = 0.00947368 s.

oceanWave3D: Time = 3.88632 s.
oceanWave3D: deltaT = 0.00947368 s.

oceanWave3D: Time = 3.89579 s.
oceanWave3D: deltaT = 0.00947368 s.

oceanWave3D: Time = 3.90526 s.
oceanWave3D: deltaT = 0.00947368 s.

oceanWave3D: Time = 3.91474 s.
oceanWave3D: deltaT = 0.00947368 s.

oceanWave3D: Time = 3.92421 s.
oceanWave3D: deltaT = 0.00947368 s.

oceanWave3D: Time = 3.93368 s.
oceanWave3D: deltaT = 0.00947368 s.

oceanWave3D: Time = 3.94316 s.
oceanWave3D: deltaT = 0.00947368 s.

oceanWave3D: Time = 3.95263 s.
oceanWave3D: deltaT = 0.00947368 s.

oceanWave3D: Time = 3.96211 s.
oceanWave3D: deltaT = 0.00947368 s.

oceanWave3D: Time = 3.97158 s.
oceanWave3D: deltaT = 0.00947368 s.

oceanWave3D: Time = 3.98105 s.
oceanWave3D: deltaT = 0.00947368 s.

oceanWave3D: Time = 3.99053 s.
oceanWave3D: deltaT = 0.00947368 s.

oceanWave3D: Time = 4 s.
oceanWave3D: deltaT = 0.00947368 s.

oceanWave3D: Time = 4.00952 s.
oceanWave3D: deltaT = 0.00952381 s.

oceanWave3D: Time = 4.01905 s.
oceanWave3D: deltaT = 0.00952381 s.

oceanWave3D: Time = 4.02857 s.
oceanWave3D: deltaT = 0.00952381 s.

oceanWave3D: Time = 4.0381 s.
oceanWave3D: deltaT = 0.00952381 s.

oceanWave3D: Time = 4.04762 s.
oceanWave3D: deltaT = 0.00952381 s.

oceanWave3D: Time = 4.05714 s.
oceanWave3D: deltaT = 0.00952381 s.

oceanWave3D: Time = 4.06667 s.
oceanWave3D: deltaT = 0.00952381 s.

oceanWave3D: Time = 4.07619 s.
oceanWave3D: deltaT = 0.00952381 s.

oceanWave3D: Time = 4.08571 s.
oceanWave3D: deltaT = 0.00952381 s.

oceanWave3D: Time = 4.09524 s.
oceanWave3D: deltaT = 0.00952381 s.

oceanWave3D: Time = 4.10476 s.
oceanWave3D: deltaT = 0.00952381 s.

oceanWave3D: Time = 4.11429 s.
oceanWave3D: deltaT = 0.00952381 s.

oceanWave3D: Time = 4.12381 s.
oceanWave3D: deltaT = 0.00952381 s.

oceanWave3D: Time = 4.13333 s.
oceanWave3D: deltaT = 0.00952381 s.

oceanWave3D: Time = 4.14286 s.
oceanWave3D: deltaT = 0.00952381 s.

oceanWave3D: Time = 4.15238 s.
oceanWave3D: deltaT = 0.00952381 s.

oceanWave3D: Time = 4.1619 s.
oceanWave3D: deltaT = 0.00952381 s.

oceanWave3D: Time = 4.17143 s.
oceanWave3D: deltaT = 0.00952381 s.

oceanWave3D: Time = 4.18095 s.
oceanWave3D: deltaT = 0.00952381 s.

oceanWave3D: Time = 4.19048 s.
oceanWave3D: deltaT = 0.00952381 s.

oceanWave3D: Time = 4.2 s.
oceanWave3D: deltaT = 0.00952381 s.

oceanWave3D: Time = 4.20952 s.
oceanWave3D: deltaT = 0.00952381 s.

oceanWave3D: Time = 4.21905 s.
oceanWave3D: deltaT = 0.00952381 s.

oceanWave3D: Time = 4.22857 s.
oceanWave3D: deltaT = 0.00952381 s.

oceanWave3D: Time = 4.2381 s.
oceanWave3D: deltaT = 0.00952381 s.

oceanWave3D: Time = 4.24762 s.
oceanWave3D: deltaT = 0.00952381 s.

oceanWave3D: Time = 4.25714 s.
oceanWave3D: deltaT = 0.00952381 s.

oceanWave3D: Time = 4.26667 s.
oceanWave3D: deltaT = 0.00952381 s.

oceanWave3D: Time = 4.27619 s.
oceanWave3D: deltaT = 0.00952381 s.

oceanWave3D: Time = 4.28571 s.
oceanWave3D: deltaT = 0.00952381 s.

oceanWave3D: Time = 4.29524 s.
oceanWave3D: deltaT = 0.00952381 s.

oceanWave3D: Time = 4.30476 s.
oceanWave3D: deltaT = 0.00952381 s.

oceanWave3D: Time = 4.31429 s.
oceanWave3D: deltaT = 0.00952381 s.

oceanWave3D: Time = 4.32381 s.
oceanWave3D: deltaT = 0.00952381 s.

oceanWave3D: Time = 4.33333 s.
oceanWave3D: deltaT = 0.00952381 s.

oceanWave3D: Time = 4.34286 s.
oceanWave3D: deltaT = 0.00952381 s.

oceanWave3D: Time = 4.35238 s.
oceanWave3D: deltaT = 0.00952381 s.

oceanWave3D: Time = 4.3619 s.
oceanWave3D: deltaT = 0.00952381 s.

oceanWave3D: Time = 4.37143 s.
oceanWave3D: deltaT = 0.00952381 s.

oceanWave3D: Time = 4.38095 s.
oceanWave3D: deltaT = 0.00952381 s.

oceanWave3D: Time = 4.39048 s.
oceanWave3D: deltaT = 0.00952381 s.

oceanWave3D: Time = 4.4 s.
oceanWave3D: deltaT = 0.00952381 s.

oceanWave3D: Time = 4.40952 s.
oceanWave3D: deltaT = 0.00952381 s.

oceanWave3D: Time = 4.41905 s.
oceanWave3D: deltaT = 0.00952381 s.

oceanWave3D: Time = 4.42857 s.
oceanWave3D: deltaT = 0.00952381 s.

oceanWave3D: Time = 4.4381 s.
oceanWave3D: deltaT = 0.00952381 s.

oceanWave3D: Time = 4.44762 s.
oceanWave3D: deltaT = 0.00952381 s.

oceanWave3D: Time = 4.45714 s.
oceanWave3D: deltaT = 0.00952381 s.

oceanWave3D: Time = 4.46667 s.
oceanWave3D: deltaT = 0.00952381 s.

oceanWave3D: Time = 4.47619 s.
oceanWave3D: deltaT = 0.00952381 s.

oceanWave3D: Time = 4.48571 s.
oceanWave3D: deltaT = 0.00952381 s.

oceanWave3D: Time = 4.49524 s.
oceanWave3D: deltaT = 0.00952381 s.

oceanWave3D: Time = 4.50476 s.
oceanWave3D: deltaT = 0.00952381 s.

oceanWave3D: Time = 4.51429 s.
oceanWave3D: deltaT = 0.00952381 s.

oceanWave3D: Time = 4.52381 s.
oceanWave3D: deltaT = 0.00952381 s.

oceanWave3D: Time = 4.53333 s.
oceanWave3D: deltaT = 0.00952381 s.

oceanWave3D: Time = 4.54286 s.
oceanWave3D: deltaT = 0.00952381 s.

oceanWave3D: Time = 4.55238 s.
oceanWave3D: deltaT = 0.00952381 s.

oceanWave3D: Time = 4.5619 s.
oceanWave3D: deltaT = 0.00952381 s.

oceanWave3D: Time = 4.57143 s.
oceanWave3D: deltaT = 0.00952381 s.

oceanWave3D: Time = 4.58095 s.
oceanWave3D: deltaT = 0.00952381 s.

oceanWave3D: Time = 4.59048 s.
oceanWave3D: deltaT = 0.00952381 s.

oceanWave3D: Time = 4.6 s.
oceanWave3D: deltaT = 0.00952381 s.

oceanWave3D: Time = 4.60952 s.
oceanWave3D: deltaT = 0.00952381 s.

oceanWave3D: Time = 4.61905 s.
oceanWave3D: deltaT = 0.00952381 s.

oceanWave3D: Time = 4.62857 s.
oceanWave3D: deltaT = 0.00952381 s.

oceanWave3D: Time = 4.6381 s.
oceanWave3D: deltaT = 0.00952381 s.

oceanWave3D: Time = 4.64762 s.
oceanWave3D: deltaT = 0.00952381 s.

oceanWave3D: Time = 4.65714 s.
oceanWave3D: deltaT = 0.00952381 s.

oceanWave3D: Time = 4.66667 s.
oceanWave3D: deltaT = 0.00952381 s.

oceanWave3D: Time = 4.67619 s.
oceanWave3D: deltaT = 0.00952381 s.

oceanWave3D: Time = 4.68571 s.
oceanWave3D: deltaT = 0.00952381 s.

oceanWave3D: Time = 4.69524 s.
oceanWave3D: deltaT = 0.00952381 s.

oceanWave3D: Time = 4.70476 s.
oceanWave3D: deltaT = 0.00952381 s.

oceanWave3D: Time = 4.71429 s.
oceanWave3D: deltaT = 0.00952381 s.

oceanWave3D: Time = 4.72381 s.
oceanWave3D: deltaT = 0.00952381 s.

oceanWave3D: Time = 4.73333 s.
oceanWave3D: deltaT = 0.00952381 s.

oceanWave3D: Time = 4.74286 s.
oceanWave3D: deltaT = 0.00952381 s.

oceanWave3D: Time = 4.75238 s.
oceanWave3D: deltaT = 0.00952381 s.

oceanWave3D: Time = 4.7619 s.
oceanWave3D: deltaT = 0.00952381 s.

oceanWave3D: Time = 4.77143 s.
oceanWave3D: deltaT = 0.00952381 s.

oceanWave3D: Time = 4.78095 s.
oceanWave3D: deltaT = 0.00952381 s.

oceanWave3D: Time = 4.79048 s.
oceanWave3D: deltaT = 0.00952381 s.

oceanWave3D: Time = 4.8 s.
oceanWave3D: deltaT = 0.00952381 s.

oceanWave3D: Time = 4.81 s.
oceanWave3D: deltaT = 0.01 s.

oceanWave3D: Time = 4.82 s.
oceanWave3D: deltaT = 0.01 s.

oceanWave3D: Time = 4.83 s.
oceanWave3D: deltaT = 0.01 s.

oceanWave3D: Time = 4.84 s.
oceanWave3D: deltaT = 0.01 s.

oceanWave3D: Time = 4.84941 s.
oceanWave3D: deltaT = 0.00941176 s.

oceanWave3D: Time = 4.85882 s.
oceanWave3D: deltaT = 0.00941176 s.

oceanWave3D: Time = 4.86824 s.
oceanWave3D: deltaT = 0.00941176 s.

oceanWave3D: Time = 4.87765 s.
oceanWave3D: deltaT = 0.00941176 s.

oceanWave3D: Time = 4.88706 s.
oceanWave3D: deltaT = 0.00941176 s.

oceanWave3D: Time = 4.89647 s.
oceanWave3D: deltaT = 0.00941176 s.

oceanWave3D: Time = 4.90588 s.
oceanWave3D: deltaT = 0.00941176 s.

oceanWave3D: Time = 4.91529 s.
oceanWave3D: deltaT = 0.00941176 s.

oceanWave3D: Time = 4.92471 s.
oceanWave3D: deltaT = 0.00941176 s.

oceanWave3D: Time = 4.93412 s.
oceanWave3D: deltaT = 0.00941176 s.

oceanWave3D: Time = 4.94353 s.
oceanWave3D: deltaT = 0.00941176 s.

oceanWave3D: Time = 4.95294 s.
oceanWave3D: deltaT = 0.00941176 s.

oceanWave3D: Time = 4.96235 s.
oceanWave3D: deltaT = 0.00941176 s.

oceanWave3D: Time = 4.97176 s.
oceanWave3D: deltaT = 0.00941176 s.

oceanWave3D: Time = 4.98118 s.
oceanWave3D: deltaT = 0.00941176 s.

oceanWave3D: Time = 4.99059 s.
oceanWave3D: deltaT = 0.00941176 s.

oceanWave3D: Time = 5 s.
oceanWave3D: deltaT = 0.00941176 s.

Mapping the OceanWave3D solution to the OpenFoam domain
Applied ramping factor: 1

GAMG:  Solving for pcorr, Initial residual = 1, Final residual = 9.60637e-08, No Iterations 20
GAMG:  Solving for pcorr, Initial residual = 9.64308e-09, Final residual = 9.64308e-09, No Iterations 0
Courant Number mean: 0.00943881 max: 0.113915
deltaT = 0.0111111
External step: 24.57 s.
PIMPLE: iteration 1
smoothSolver:  Solving for alpha.water, Initial residual = 0.000248532, Final residual = 1.75115e-10, No Iterations 2
Phase-1 volume fraction = 0.669785  Min(alpha.water) = 0  Max(alpha.water) = 1
MULES: Correcting alpha.water
Phase-1 volume fraction = 0.669785  Min(alpha.water) = 0  Max(alpha.water) = 1
Relaxing time: 0.04 s
DILUPBiCG:  Solving for Ux, Initial residual = 0.00108978, Final residual = 1.42121e-12, No Iterations 3
DILUPBiCG:  Solving for Uy, Initial residual = 0.0841841, Final residual = 2.80037e-10, No Iterations 3
GAMG:  Solving for p_rgh, Initial residual = 1, Final residual = 7.44276e-08, No Iterations 11
GAMG:  Solving for p_rgh, Initial residual = 9.94847e-09, Final residual = 9.94847e-09, No Iterations 0
time step continuity errors : sum local = 1.62561e-08, global = -1.2632e-08, cumulative = -1.2632e-08
GAMG:  Solving for p_rgh, Initial residual = 0.0018198, Final residual = 6.09022e-08, No Iterations 5
GAMG:  Solving for p_rgh, Initial residual = 6.17699e-08, Final residual = 6.17699e-08, No Iterations 0
time step continuity errors : sum local = 9.94001e-08, global = 3.00014e-08, cumulative = 1.73694e-08
GAMG:  Solving for p_rgh, Initial residual = 6.2745e-05, Final residual = 3.54697e-08, No Iterations 2
GAMG:  Solving for p_rgh, Initial residual = 3.5498e-08, Final residual = 4.22398e-09, No Iterations 2
time step continuity errors : sum local = 6.79167e-09, global = 5.46596e-09, cumulative = 2.28353e-08
ExecutionTime = 25.81 s  ClockTime = 26 s

Courant Number mean: 0.011926 max: 0.182795
Interface Courant Number mean: 0.00044213 max: 0.182795
deltaT = 0.0125926
Time = 5.0237

External step: 0.07 s.
PIMPLE: iteration 1
smoothSolver:  Solving for alpha.water, Initial residual = 0.00030261, Final residual = 4.99954e-10, No Iterations 2
Phase-1 volume fraction = 0.669813  Min(alpha.water) = 0  Max(alpha.water) = 1
MULES: Correcting alpha.water
Phase-1 volume fraction = 0.669813  Min(alpha.water) = 0  Max(alpha.water) = 1
Relaxing time: 0.04 s
DILUPBiCG:  Solving for Ux, Initial residual = 0.0154798, Final residual = 2.56609e-11, No Iterations 3
DILUPBiCG:  Solving for Uy, Initial residual = 0.0262381, Final residual = 7.53488e-11, No Iterations 3
GAMG:  Solving for p_rgh, Initial residual = 0.0204828, Final residual = 6.03763e-08, No Iterations 7
GAMG:  Solving for p_rgh, Initial residual = 6.3456e-08, Final residual = 6.3456e-08, No Iterations 0
time step continuity errors : sum local = 1.21121e-07, global = 3.53386e-08, cumulative = 5.81739e-08
GAMG:  Solving for p_rgh, Initial residual = 0.000430784, Final residual = 5.87485e-08, No Iterations 4
GAMG:  Solving for p_rgh, Initial residual = 5.85921e-08, Final residual = 5.85921e-08, No Iterations 0
time step continuity errors : sum local = 1.12128e-07, global = 7.97978e-08, cumulative = 1.37972e-07
GAMG:  Solving for p_rgh, Initial residual = 1.91676e-05, Final residual = 8.65009e-08, No Iterations 1
GAMG:  Solving for p_rgh, Initial residual = 8.64838e-08, Final residual = 5.89528e-09, No Iterations 2
time step continuity errors : sum local = 1.1284e-08, global = -7.78676e-09, cumulative = 1.30185e-07
ExecutionTime = 26.07 s  ClockTime = 26 s

Courant Number mean: 0.0140813 max: 0.221124
Interface Courant Number mean: 0.000578803 max: 0.221123
deltaT = 0.0135613
Time = 5.03726

External step: 0.07 s.
PIMPLE: iteration 1
smoothSolver:  Solving for alpha.water, Initial residual = 0.000339911, Final residual = 8.87065e-10, No Iterations 2
Phase-1 volume fraction = 0.669841  Min(alpha.water) = 0  Max(alpha.water) = 1
MULES: Correcting alpha.water
Phase-1 volume fraction = 0.669841  Min(alpha.water) = -1.92694e-10  Max(alpha.water) = 1
Relaxing time: 0.04 s
DILUPBiCG:  Solving for Ux, Initial residual = 0.0170577, Final residual = 4.90573e-11, No Iterations 3
DILUPBiCG:  Solving for Uy, Initial residual = 0.0263254, Final residual = 4.63338e-10, No Iterations 3
GAMG:  Solving for p_rgh, Initial residual = 0.0226685, Final residual = 7.97926e-08, No Iterations 6
GAMG:  Solving for p_rgh, Initial residual = 8.14536e-08, Final residual = 8.14536e-08, No Iterations 0
time step continuity errors : sum local = 1.74113e-07, global = -1.01208e-08, cumulative = 1.20064e-07
GAMG:  Solving for p_rgh, Initial residual = 0.000460399, Final residual = 6.29067e-08, No Iterations 4
GAMG:  Solving for p_rgh, Initial residual = 6.26713e-08, Final residual = 6.26713e-08, No Iterations 0
time step continuity errors : sum local = 1.34457e-07, global = 8.3932e-08, cumulative = 2.03996e-07
GAMG:  Solving for p_rgh, Initial residual = 1.96133e-05, Final residual = 7.26912e-08, No Iterations 1
GAMG:  Solving for p_rgh, Initial residual = 7.26685e-08, Final residual = 6.10666e-09, No Iterations 2
time step continuity errors : sum local = 1.31054e-08, global = -9.79128e-09, cumulative = 1.94205e-07
ExecutionTime = 26.33 s  ClockTime = 26 s

Courant Number mean: 0.0156385 max: 0.202057
Interface Courant Number mean: 0.000671995 max: 0.199529
deltaT = 0.0147941
Time = 5.05206

External step: 0.07 s.
PIMPLE: iteration 1
smoothSolver:  Solving for alpha.water, Initial residual = 0.000381678, Final residual = 1.5391e-09, No Iterations 2
Phase-1 volume fraction = 0.669869  Min(alpha.water) = 0  Max(alpha.water) = 1
MULES: Correcting alpha.water
Phase-1 volume fraction = 0.669869  Min(alpha.water) = -1.50137e-11  Max(alpha.water) = 1
Relaxing time: 0.04 s
DILUPBiCG:  Solving for Ux, Initial residual = 0.0188368, Final residual = 1.5953e-10, No Iterations 3
DILUPBiCG:  Solving for Uy, Initial residual = 0.0302494, Final residual = 5.28507e-12, No Iterations 4
GAMG:  Solving for p_rgh, Initial residual = 0.0235473, Final residual = 8.61519e-08, No Iterations 6
GAMG:  Solving for p_rgh, Initial residual = 8.77042e-08, Final residual = 8.77042e-08, No Iterations 0
time step continuity errors : sum local = 2.17389e-07, global = 1.12658e-08, cumulative = 2.05471e-07
GAMG:  Solving for p_rgh, Initial residual = 0.000538448, Final residual = 6.47896e-08, No Iterations 4
GAMG:  Solving for p_rgh, Initial residual = 6.45117e-08, Final residual = 6.45117e-08, No Iterations 0
time step continuity errors : sum local = 1.60571e-07, global = 8.33682e-08, cumulative = 2.88839e-07
GAMG:  Solving for p_rgh, Initial residual = 2.31516e-05, Final residual = 9.31186e-08, No Iterations 1
GAMG:  Solving for p_rgh, Initial residual = 9.30837e-08, Final residual = 8.32877e-09, No Iterations 2
time step continuity errors : sum local = 2.07381e-08, global = -1.59409e-08, cumulative = 2.72898e-07
ExecutionTime = 26.59 s  ClockTime = 26 s

Courant Number mean: 0.0175276 max: 0.253064
Interface Courant Number mean: 0.00076199 max: 0.253063
deltaT = 0.0134492
Time = 5.06551

External step: 0.06 s.
PIMPLE: iteration 1
smoothSolver:  Solving for alpha.water, Initial residual = 0.000356444, Final residual = 1.09547e-09, No Iterations 2
Phase-1 volume fraction = 0.66989  Min(alpha.water) = 0  Max(alpha.water) = 1
MULES: Correcting alpha.water
Phase-1 volume fraction = 0.66989  Min(alpha.water) = -9.03817e-12  Max(alpha.water) = 1
Relaxing time: 0.04 s
DILUPBiCG:  Solving for Ux, Initial residual = 0.0173304, Final residual = 4.74551e-11, No Iterations 3
DILUPBiCG:  Solving for Uy, Initial residual = 0.0275945, Final residual = 5.04837e-10, No Iterations 3
GAMG:  Solving for p_rgh, Initial residual = 0.0224224, Final residual = 9.31796e-08, No Iterations 6
GAMG:  Solving for p_rgh, Initial residual = 9.45208e-08, Final residual = 9.45208e-08, No Iterations 0
time step continuity errors : sum local = 1.89968e-07, global = 2.62643e-08, cumulative = 2.99162e-07
GAMG:  Solving for p_rgh, Initial residual = 0.000462627, Final residual = 5.06037e-08, No Iterations 4
GAMG:  Solving for p_rgh, Initial residual = 5.03873e-08, Final residual = 5.03873e-08, No Iterations 0
time step continuity errors : sum local = 1.0169e-07, global = 4.04486e-08, cumulative = 3.39611e-07
GAMG:  Solving for p_rgh, Initial residual = 2.07833e-05, Final residual = 6.84247e-08, No Iterations 1
GAMG:  Solving for p_rgh, Initial residual = 6.84004e-08, Final residual = 6.6418e-09, No Iterations 2
time step continuity errors : sum local = 1.3409e-08, global = -1.05363e-08, cumulative = 3.29075e-07
ExecutionTime = 26.84 s  ClockTime = 27 s

Courant Number mean: 0.01628 max: 0.206793
Interface Courant Number mean: 0.000738229 max: 0.202683
deltaT = 0.0149435
Time = 5.08045

External step: 0.07 s.
PIMPLE: iteration 1
smoothSolver:  Solving for alpha.water, Initial residual = 0.000404699, Final residual = 1.93105e-09, No Iterations 2
Phase-1 volume fraction = 0.669911  Min(alpha.water) = 0  Max(alpha.water) = 1
MULES: Correcting alpha.water
Phase-1 volume fraction = 0.669911  Min(alpha.water) = -2.30416e-11  Max(alpha.water) = 1
Relaxing time: 0.04 s
DILUPBiCG:  Solving for Ux, Initial residual = 0.0194701, Final residual = 4.42059e-11, No Iterations 3
DILUPBiCG:  Solving for Uy, Initial residual = 0.0317036, Final residual = 8.70367e-12, No Iterations 4
GAMG:  Solving for p_rgh, Initial residual = 0.0232803, Final residual = 9.43952e-08, No Iterations 6
GAMG:  Solving for p_rgh, Initial residual = 9.602e-08, Final residual = 9.602e-08, No Iterations 0
time step continuity errors : sum local = 2.33594e-07, global = 3.24638e-08, cumulative = 3.61538e-07
GAMG:  Solving for p_rgh, Initial residual = 0.000633862, Final residual = 6.91377e-08, No Iterations 4
GAMG:  Solving for p_rgh, Initial residual = 6.87078e-08, Final residual = 6.87078e-08, No Iterations 0
time step continuity errors : sum local = 1.68169e-07, global = 7.56159e-08, cumulative = 4.37154e-07
GAMG:  Solving for p_rgh, Initial residual = 2.99696e-05, Final residual = 2.65282e-08, No Iterations 2
GAMG:  Solving for p_rgh, Initial residual = 2.65013e-08, Final residual = 9.82026e-09, No Iterations 1
time step continuity errors : sum local = 2.40604e-08, global = -1.86299e-08, cumulative = 4.18524e-07
ExecutionTime = 27.1 s  ClockTime = 27 s

Courant Number mean: 0.0184493 max: 0.259893
Interface Courant Number mean: 0.000852496 max: 0.258097
deltaT = 0.0132831
Time = 5.09373

External step: 0.07 s.
PIMPLE: iteration 1
smoothSolver:  Solving for alpha.water, Initial residual = 0.000367559, Final residual = 1.18705e-09, No Iterations 2
Phase-1 volume fraction = 0.669924  Min(alpha.water) = 0  Max(alpha.water) = 1
MULES: Correcting alpha.water
Phase-1 volume fraction = 0.669924  Min(alpha.water) = -1.6093e-11  Max(alpha.water) = 1
Relaxing time: 0.04 s
DILUPBiCG:  Solving for Ux, Initial residual = 0.0174943, Final residual = 9.61364e-12, No Iterations 3
DILUPBiCG:  Solving for Uy, Initial residual = 0.0278113, Final residual = 3.23599e-10, No Iterations 3
GAMG:  Solving for p_rgh, Initial residual = 0.0217539, Final residual = 3.29848e-08, No Iterations 7
GAMG:  Solving for p_rgh, Initial residual = 3.33646e-08, Final residual = 3.33646e-08, No Iterations 0
time step continuity errors : sum local = 6.43503e-08, global = 1.25338e-08, cumulative = 4.31058e-07
GAMG:  Solving for p_rgh, Initial residual = 0.000405805, Final residual = 5.14022e-08, No Iterations 4
GAMG:  Solving for p_rgh, Initial residual = 5.11438e-08, Final residual = 5.11438e-08, No Iterations 0
time step continuity errors : sum local = 9.91275e-08, global = 1.60429e-08, cumulative = 4.47101e-07
GAMG:  Solving for p_rgh, Initial residual = 1.5636e-05, Final residual = 6.46203e-08, No Iterations 1
GAMG:  Solving for p_rgh, Initial residual = 6.4595e-08, Final residual = 7.10027e-09, No Iterations 2
time step continuity errors : sum local = 1.37672e-08, global = -1.14937e-08, cumulative = 4.35607e-07
ExecutionTime = 27.36 s  ClockTime = 27 s

Courant Number mean: 0.0166607 max: 0.224793
Interface Courant Number mean: 0.00077928 max: 0.224793
deltaT = 0.0132831
Time = 5.10702

External step: 0.07 s.
PIMPLE: iteration 1
smoothSolver:  Solving for alpha.water, Initial residual = 0.000374153, Final residual = 1.23815e-09, No Iterations 2
Phase-1 volume fraction = 0.669934  Min(alpha.water) = 0  Max(alpha.water) = 1
MULES: Correcting alpha.water
Phase-1 volume fraction = 0.669934  Min(alpha.water) = -1.65782e-11  Max(alpha.water) = 1
Relaxing time: 0.05 s
DILUPBiCG:  Solving for Ux, Initial residual = 0.0176497, Final residual = 3.40886e-11, No Iterations 3
DILUPBiCG:  Solving for Uy, Initial residual = 0.0276024, Final residual = 6.26507e-10, No Iterations 3
GAMG:  Solving for p_rgh, Initial residual = 0.021151, Final residual = 9.21357e-08, No Iterations 6
GAMG:  Solving for p_rgh, Initial residual = 9.37408e-08, Final residual = 9.37408e-08, No Iterations 0
time step continuity errors : sum local = 1.7903e-07, global = 4.64586e-08, cumulative = 4.82066e-07
GAMG:  Solving for p_rgh, Initial residual = 0.000425121, Final residual = 5.33924e-08, No Iterations 4
GAMG:  Solving for p_rgh, Initial residual = 5.31181e-08, Final residual = 5.31181e-08, No Iterations 0
time step continuity errors : sum local = 1.01958e-07, global = 2.48302e-08, cumulative = 5.06896e-07
GAMG:  Solving for p_rgh, Initial residual = 1.58542e-05, Final residual = 6.89935e-08, No Iterations 1
GAMG:  Solving for p_rgh, Initial residual = 6.89668e-08, Final residual = 6.66958e-09, No Iterations 2
time step continuity errors : sum local = 1.28069e-08, global = -1.03327e-08, cumulative = 4.96563e-07
ExecutionTime = 27.61 s  ClockTime = 28 s

Courant Number mean: 0.0168937 max: 0.215038
Interface Courant Number mean: 0.000797257 max: 0.212608
deltaT = 0.0132831
Time = 5.1203

External step: 0.06 s.
PIMPLE: iteration 1
smoothSolver:  Solving for alpha.water, Initial residual = 0.000380039, Final residual = 1.28182e-09, No Iterations 2
Phase-1 volume fraction = 0.66994  Min(alpha.water) = 0  Max(alpha.water) = 1
MULES: Correcting alpha.water
Phase-1 volume fraction = 0.66994  Min(alpha.water) = -1.53622e-11  Max(alpha.water) = 1
Relaxing time: 0.04 s
DILUPBiCG:  Solving for Ux, Initial residual = 0.0178677, Final residual = 1.4023e-11, No Iterations 3
DILUPBiCG:  Solving for Uy, Initial residual = 0.0277822, Final residual = 4.3595e-10, No Iterations 3
GAMG:  Solving for p_rgh, Initial residual = 0.0213305, Final residual = 9.53272e-08, No Iterations 6
GAMG:  Solving for p_rgh, Initial residual = 9.69536e-08, Final residual = 9.69536e-08, No Iterations 0
time step continuity errors : sum local = 1.83799e-07, global = 4.7907e-08, cumulative = 5.4447e-07
GAMG:  Solving for p_rgh, Initial residual = 0.000447916, Final residual = 5.36411e-08, No Iterations 4
GAMG:  Solving for p_rgh, Initial residual = 5.33781e-08, Final residual = 5.33781e-08, No Iterations 0
time step continuity errors : sum local = 1.01677e-07, global = 3.42885e-08, cumulative = 5.78759e-07
GAMG:  Solving for p_rgh, Initial residual = 1.86369e-05, Final residual = 7.33371e-08, No Iterations 1
GAMG:  Solving for p_rgh, Initial residual = 7.33076e-08, Final residual = 7.4032e-09, No Iterations 2
time step continuity errors : sum local = 1.41075e-08, global = -1.13743e-08, cumulative = 5.67385e-07
ExecutionTime = 27.87 s  ClockTime = 28 s

Courant Number mean: 0.017114 max: 0.231004
Interface Courant Number mean: 0.000828221 max: 0.231004
deltaT = 0.0132831
Time = 5.13358

External step: 0.07 s.
PIMPLE: iteration 1
smoothSolver:  Solving for alpha.water, Initial residual = 0.000385787, Final residual = 1.30958e-09, No Iterations 2
Phase-1 volume fraction = 0.669943  Min(alpha.water) = 0  Max(alpha.water) = 1
MULES: Correcting alpha.water
Phase-1 volume fraction = 0.669943  Min(alpha.water) = -1.33893e-11  Max(alpha.water) = 1
Relaxing time: 0.04 s
DILUPBiCG:  Solving for Ux, Initial residual = 0.0179928, Final residual = 1.55396e-11, No Iterations 3
DILUPBiCG:  Solving for Uy, Initial residual = 0.0279706, Final residual = 6.34419e-10, No Iterations 3
GAMG:  Solving for p_rgh, Initial residual = 0.0209982, Final residual = 9.82745e-08, No Iterations 6
GAMG:  Solving for p_rgh, Initial residual = 9.96228e-08, Final residual = 9.96228e-08, No Iterations 0
time step continuity errors : sum local = 1.87716e-07, global = 4.0957e-08, cumulative = 6.08342e-07
GAMG:  Solving for p_rgh, Initial residual = 0.000417082, Final residual = 5.26235e-08, No Iterations 4
GAMG:  Solving for p_rgh, Initial residual = 5.23346e-08, Final residual = 5.23346e-08, No Iterations 0
time step continuity errors : sum local = 9.91465e-08, global = 2.25814e-08, cumulative = 6.30923e-07
GAMG:  Solving for p_rgh, Initial residual = 1.61378e-05, Final residual = 6.9035e-08, No Iterations 1
GAMG:  Solving for p_rgh, Initial residual = 6.90101e-08, Final residual = 6.55448e-09, No Iterations 2
time step continuity errors : sum local = 1.24217e-08, global = -9.85051e-09, cumulative = 6.21073e-07
ExecutionTime = 28.12 s  ClockTime = 28 s

Courant Number mean: 0.0173192 max: 0.223585
Interface Courant Number mean: 0.000849243 max: 0.217925
deltaT = 0.0132831
Time = 5.14687

External step: 0.07 s.
PIMPLE: iteration 1
smoothSolver:  Solving for alpha.water, Initial residual = 0.000390915, Final residual = 1.34633e-09, No Iterations 2
Phase-1 volume fraction = 0.669941  Min(alpha.water) = 0  Max(alpha.water) = 1
MULES: Correcting alpha.water
Phase-1 volume fraction = 0.669941  Min(alpha.water) = -1.11507e-11  Max(alpha.water) = 1
Relaxing time: 0.04 s
DILUPBiCG:  Solving for Ux, Initial residual = 0.0181958, Final residual = 3.44009e-11, No Iterations 3
DILUPBiCG:  Solving for Uy, Initial residual = 0.0281488, Final residual = 4.61982e-10, No Iterations 3
GAMG:  Solving for p_rgh, Initial residual = 0.020585, Final residual = 9.76201e-08, No Iterations 6
GAMG:  Solving for p_rgh, Initial residual = 9.92999e-08, Final residual = 9.92999e-08, No Iterations 0
time step continuity errors : sum local = 1.85772e-07, global = 5.34215e-08, cumulative = 6.74494e-07
GAMG:  Solving for p_rgh, Initial residual = 0.000404249, Final residual = 5.70242e-08, No Iterations 4
GAMG:  Solving for p_rgh, Initial residual = 5.67068e-08, Final residual = 5.67068e-08, No Iterations 0
time step continuity errors : sum local = 1.06669e-07, global = 1.80512e-08, cumulative = 6.92545e-07
GAMG:  Solving for p_rgh, Initial residual = 1.46454e-05, Final residual = 6.84716e-08, No Iterations 1
GAMG:  Solving for p_rgh, Initial residual = 6.84437e-08, Final residual = 7.26211e-09, No Iterations 2
time step continuity errors : sum local = 1.3666e-08, global = -1.11858e-08, cumulative = 6.8136e-07
ExecutionTime = 28.39 s  ClockTime = 28 s

Courant Number mean: 0.0175217 max: 0.231434
Interface Courant Number mean: 0.000855279 max: 0.231434
deltaT = 0.0132831
Time = 5.16015

External step: 0.07 s.
PIMPLE: iteration 1
smoothSolver:  Solving for alpha.water, Initial residual = 0.000396277, Final residual = 1.37689e-09, No Iterations 2
Phase-1 volume fraction = 0.669935  Min(alpha.water) = 0  Max(alpha.water) = 1
MULES: Correcting alpha.water
Phase-1 volume fraction = 0.669935  Min(alpha.water) = -9.03232e-12  Max(alpha.water) = 1
Relaxing time: 0.04 s
DILUPBiCG:  Solving for Ux, Initial residual = 0.018323, Final residual = 2.26542e-11, No Iterations 3
DILUPBiCG:  Solving for Uy, Initial residual = 0.0282175, Final residual = 5.60922e-10, No Iterations 3
GAMG:  Solving for p_rgh, Initial residual = 0.020297, Final residual = 9.87231e-08, No Iterations 6
GAMG:  Solving for p_rgh, Initial residual = 1.00253e-07, Final residual = 3.29235e-08, No Iterations 1
time step continuity errors : sum local = 6.11444e-08, global = 1.84576e-08, cumulative = 6.99817e-07
GAMG:  Solving for p_rgh, Initial residual = 0.000436275, Final residual = 5.47863e-08, No Iterations 4
GAMG:  Solving for p_rgh, Initial residual = 5.44661e-08, Final residual = 5.44661e-08, No Iterations 0
time step continuity errors : sum local = 1.01718e-07, global = 1.82706e-08, cumulative = 7.18088e-07
GAMG:  Solving for p_rgh, Initial residual = 1.82565e-05, Final residual = 8.00041e-08, No Iterations 1
GAMG:  Solving for p_rgh, Initial residual = 7.99712e-08, Final residual = 7.90451e-09, No Iterations 2
time step continuity errors : sum local = 1.47681e-08, global = -1.21206e-08, cumulative = 7.05967e-07
ExecutionTime = 28.65 s  ClockTime = 29 s

Courant Number mean: 0.0177298 max: 0.236044
Interface Courant Number mean: 0.00087287 max: 0.236044
deltaT = 0.0132831
Time = 5.17343

External step: 0.07 s.
PIMPLE: iteration 1
smoothSolver:  Solving for alpha.water, Initial residual = 0.000401031, Final residual = 1.39905e-09, No Iterations 2
Phase-1 volume fraction = 0.669925  Min(alpha.water) = 0  Max(alpha.water) = 1
MULES: Correcting alpha.water
Phase-1 volume fraction = 0.669925  Min(alpha.water) = -7.07617e-12  Max(alpha.water) = 1
Relaxing time: 0.04 s
DILUPBiCG:  Solving for Ux, Initial residual = 0.01833, Final residual = 2.02782e-11, No Iterations 3
DILUPBiCG:  Solving for Uy, Initial residual = 0.0281802, Final residual = 4.22432e-10, No Iterations 3
GAMG:  Solving for p_rgh, Initial residual = 0.019882, Final residual = 9.85617e-08, No Iterations 6
GAMG:  Solving for p_rgh, Initial residual = 1.00146e-07, Final residual = 3.31156e-08, No Iterations 1
time step continuity errors : sum local = 6.11217e-08, global = 1.69052e-08, cumulative = 7.22872e-07
GAMG:  Solving for p_rgh, Initial residual = 0.000439901, Final residual = 5.63497e-08, No Iterations 4
GAMG:  Solving for p_rgh, Initial residual = 5.60369e-08, Final residual = 5.60369e-08, No Iterations 0
time step continuity errors : sum local = 1.03976e-07, global = 1.63416e-08, cumulative = 7.39214e-07
GAMG:  Solving for p_rgh, Initial residual = 1.79532e-05, Final residual = 7.62351e-08, No Iterations 1
GAMG:  Solving for p_rgh, Initial residual = 7.62048e-08, Final residual = 7.53551e-09, No Iterations 2
time step continuity errors : sum local = 1.39876e-08, global = -1.12596e-08, cumulative = 7.27954e-07
ExecutionTime = 28.9 s  ClockTime = 29 s

Courant Number mean: 0.0179074 max: 0.227728
Interface Courant Number mean: 0.000879535 max: 0.211184
deltaT = 0.0132831
Time = 5.18672

External step: 0.06 s.
PIMPLE: iteration 1
smoothSolver:  Solving for alpha.water, Initial residual = 0.000405405, Final residual = 1.42392e-09, No Iterations 2
Phase-1 volume fraction = 0.669912  Min(alpha.water) = 0  Max(alpha.water) = 1
MULES: Correcting alpha.water
Phase-1 volume fraction = 0.669912  Min(alpha.water) = -5.38244e-12  Max(alpha.water) = 1
Relaxing time: 0.04 s
DILUPBiCG:  Solving for Ux, Initial residual = 0.0185174, Final residual = 2.01827e-11, No Iterations 3
DILUPBiCG:  Solving for Uy, Initial residual = 0.0282128, Final residual = 6.95992e-10, No Iterations 3
GAMG:  Solving for p_rgh, Initial residual = 0.0195933, Final residual = 9.67063e-08, No Iterations 6
GAMG:  Solving for p_rgh, Initial residual = 9.88176e-08, Final residual = 9.88176e-08, No Iterations 0
time step continuity errors : sum local = 1.79804e-07, global = 6.24036e-08, cumulative = 7.90358e-07
GAMG:  Solving for p_rgh, Initial residual = 0.000416107, Final residual = 5.70512e-08, No Iterations 4
GAMG:  Solving for p_rgh, Initial residual = 5.66657e-08, Final residual = 5.66657e-08, No Iterations 0
time step continuity errors : sum local = 1.03796e-07, global = 8.08115e-09, cumulative = 7.98439e-07
GAMG:  Solving for p_rgh, Initial residual = 1.64569e-05, Final residual = 7.36853e-08, No Iterations 1
GAMG:  Solving for p_rgh, Initial residual = 7.36535e-08, Final residual = 8.24992e-09, No Iterations 2
time step continuity errors : sum local = 1.51181e-08, global = -1.2672e-08, cumulative = 7.85767e-07
ExecutionTime = 29.17 s  ClockTime = 29 s

Courant Number mean: 0.0180906 max: 0.219558
Interface Courant Number mean: 0.000913991 max: 0.216418
deltaT = 0.0132831
Time = 5.2

External step: 0.07 s.
PIMPLE: iteration 1
smoothSolver:  Solving for alpha.water, Initial residual = 0.000409781, Final residual = 1.43776e-09, No Iterations 2
Phase-1 volume fraction = 0.669895  Min(alpha.water) = 0  Max(alpha.water) = 1
MULES: Correcting alpha.water
Phase-1 volume fraction = 0.669895  Min(alpha.water) = -3.93136e-12  Max(alpha.water) = 1
Relaxing time: 0.04 s
DILUPBiCG:  Solving for Ux, Initial residual = 0.0186853, Final residual = 2.49136e-11, No Iterations 3
DILUPBiCG:  Solving for Uy, Initial residual = 0.028136, Final residual = 3.55429e-10, No Iterations 3
GAMG:  Solving for p_rgh, Initial residual = 0.019008, Final residual = 9.56468e-08, No Iterations 6
GAMG:  Solving for p_rgh, Initial residual = 9.6841e-08, Final residual = 9.6841e-08, No Iterations 0
time step continuity errors : sum local = 1.75666e-07, global = 4.97197e-08, cumulative = 8.35487e-07
GAMG:  Solving for p_rgh, Initial residual = 0.000448775, Final residual = 5.32671e-08, No Iterations 4
GAMG:  Solving for p_rgh, Initial residual = 5.29952e-08, Final residual = 5.29952e-08, No Iterations 0
time step continuity errors : sum local = 9.66109e-08, global = 2.37885e-08, cumulative = 8.59275e-07
GAMG:  Solving for p_rgh, Initial residual = 1.97907e-05, Final residual = 7.98092e-08, No Iterations 1
GAMG:  Solving for p_rgh, Initial residual = 7.97815e-08, Final residual = 7.4077e-09, No Iterations 2
[...]
oceanWave3D: deltaT = 0.01 s.

oceanWave3D: Time = 27.89 s.
oceanWave3D: deltaT = 0.01 s.

oceanWave3D: Time = 27.9 s.
oceanWave3D: deltaT = 0.01 s.

oceanWave3D: Time = 27.91 s.
oceanWave3D: deltaT = 0.01 s.

oceanWave3D: Time = 27.92 s.
oceanWave3D: deltaT = 0.01 s.

oceanWave3D: Time = 27.93 s.
oceanWave3D: deltaT = 0.01 s.

oceanWave3D: Time = 27.9387 s.
oceanWave3D: deltaT = 0.00875 s.

oceanWave3D: Time = 27.9475 s.
oceanWave3D: deltaT = 0.00875 s.

oceanWave3D: Time = 27.9562 s.
oceanWave3D: deltaT = 0.00875 s.

oceanWave3D: Time = 27.965 s.
oceanWave3D: deltaT = 0.00875 s.

oceanWave3D: Time = 27.9737 s.
oceanWave3D: deltaT = 0.00875 s.

oceanWave3D: Time = 27.9825 s.
oceanWave3D: deltaT = 0.00875 s.

oceanWave3D: Time = 27.9913 s.
oceanWave3D: deltaT = 0.00875 s.

oceanWave3D: Time = 28 s.
oceanWave3D: deltaT = 0.00875 s.

oceanWave3D: Time = 28.0095 s.
oceanWave3D: deltaT = 0.00952381 s.

oceanWave3D: Time = 28.019 s.
oceanWave3D: deltaT = 0.00952381 s.

oceanWave3D: Time = 28.0286 s.
oceanWave3D: deltaT = 0.00952381 s.

oceanWave3D: Time = 28.0381 s.
oceanWave3D: deltaT = 0.00952381 s.

oceanWave3D: Time = 28.0476 s.
oceanWave3D: deltaT = 0.00952381 s.

oceanWave3D: Time = 28.0571 s.
oceanWave3D: deltaT = 0.00952381 s.

oceanWave3D: Time = 28.0667 s.
oceanWave3D: deltaT = 0.00952381 s.

oceanWave3D: Time = 28.0762 s.
oceanWave3D: deltaT = 0.00952381 s.

oceanWave3D: Time = 28.0857 s.
oceanWave3D: deltaT = 0.00952381 s.

oceanWave3D: Time = 28.0952 s.
oceanWave3D: deltaT = 0.00952381 s.

oceanWave3D: Time = 28.1048 s.
oceanWave3D: deltaT = 0.00952381 s.

oceanWave3D: Time = 28.1143 s.
oceanWave3D: deltaT = 0.00952381 s.

oceanWave3D: Time = 28.1238 s.
oceanWave3D: deltaT = 0.00952381 s.

oceanWave3D: Time = 28.1333 s.
oceanWave3D: deltaT = 0.00952381 s.

oceanWave3D: Time = 28.1429 s.
oceanWave3D: deltaT = 0.00952381 s.

oceanWave3D: Time = 28.1524 s.
oceanWave3D: deltaT = 0.00952381 s.

oceanWave3D: Time = 28.1619 s.
oceanWave3D: deltaT = 0.00952381 s.

oceanWave3D: Time = 28.1714 s.
oceanWave3D: deltaT = 0.00952381 s.

oceanWave3D: Time = 28.181 s.
oceanWave3D: deltaT = 0.00952381 s.

oceanWave3D: Time = 28.1905 s.
oceanWave3D: deltaT = 0.00952381 s.

oceanWave3D: Time = 28.2 s.
oceanWave3D: deltaT = 0.00952381 s.

oceanWave3D: Time = 28.21 s.
oceanWave3D: deltaT = 0.01 s.

oceanWave3D: Time = 28.22 s.
oceanWave3D: deltaT = 0.01 s.

oceanWave3D: Time = 28.23 s.
oceanWave3D: deltaT = 0.01 s.

oceanWave3D: Time = 28.24 s.
oceanWave3D: deltaT = 0.01 s.

oceanWave3D: Time = 28.25 s.
oceanWave3D: deltaT = 0.01 s.

oceanWave3D: Time = 28.26 s.
oceanWave3D: deltaT = 0.01 s.

oceanWave3D: Time = 28.27 s.
oceanWave3D: deltaT = 0.01 s.

oceanWave3D: Time = 28.28 s.
oceanWave3D: deltaT = 0.01 s.

oceanWave3D: Time = 28.29 s.
oceanWave3D: deltaT = 0.01 s.

oceanWave3D: Time = 28.3 s.
oceanWave3D: deltaT = 0.01 s.

oceanWave3D: Time = 28.31 s.
oceanWave3D: deltaT = 0.01 s.

oceanWave3D: Time = 28.32 s.
oceanWave3D: deltaT = 0.01 s.

oceanWave3D: Time = 28.33 s.
oceanWave3D: deltaT = 0.01 s.

oceanWave3D: Time = 28.34 s.
oceanWave3D: deltaT = 0.01 s.

oceanWave3D: Time = 28.35 s.
oceanWave3D: deltaT = 0.01 s.

oceanWave3D: Time = 28.3583 s.
oceanWave3D: deltaT = 0.00833333 s.

oceanWave3D: Time = 28.3667 s.
oceanWave3D: deltaT = 0.00833333 s.

oceanWave3D: Time = 28.375 s.
oceanWave3D: deltaT = 0.00833333 s.

oceanWave3D: Time = 28.3833 s.
oceanWave3D: deltaT = 0.00833333 s.

oceanWave3D: Time = 28.3917 s.
oceanWave3D: deltaT = 0.00833333 s.

oceanWave3D: Time = 28.4 s.
oceanWave3D: deltaT = 0.00833333 s.

oceanWave3D: Time = 28.41 s.
oceanWave3D: deltaT = 0.01 s.

oceanWave3D: Time = 28.42 s.
oceanWave3D: deltaT = 0.01 s.

oceanWave3D: Time = 28.43 s.
oceanWave3D: deltaT = 0.01 s.

oceanWave3D: Time = 28.44 s.
oceanWave3D: deltaT = 0.01 s.

oceanWave3D: Time = 28.45 s.
oceanWave3D: deltaT = 0.01 s.

oceanWave3D: Time = 28.46 s.
oceanWave3D: deltaT = 0.01 s.

oceanWave3D: Time = 28.47 s.
oceanWave3D: deltaT = 0.01 s.

oceanWave3D: Time = 28.48 s.
oceanWave3D: deltaT = 0.01 s.

oceanWave3D: Time = 28.49 s.
oceanWave3D: deltaT = 0.01 s.

oceanWave3D: Time = 28.5 s.
oceanWave3D: deltaT = 0.01 s.

oceanWave3D: Time = 28.51 s.
oceanWave3D: deltaT = 0.01 s.

oceanWave3D: Time = 28.52 s.
oceanWave3D: deltaT = 0.01 s.

oceanWave3D: Time = 28.53 s.
oceanWave3D: deltaT = 0.01 s.

oceanWave3D: Time = 28.5388 s.
oceanWave3D: deltaT = 0.00875 s.

oceanWave3D: Time = 28.5475 s.
oceanWave3D: deltaT = 0.00875 s.

oceanWave3D: Time = 28.5562 s.
oceanWave3D: deltaT = 0.00875 s.

oceanWave3D: Time = 28.565 s.
oceanWave3D: deltaT = 0.00875 s.

oceanWave3D: Time = 28.5737 s.
oceanWave3D: deltaT = 0.00875 s.

oceanWave3D: Time = 28.5825 s.
oceanWave3D: deltaT = 0.00875 s.

oceanWave3D: Time = 28.5913 s.
oceanWave3D: deltaT = 0.00875 s.

oceanWave3D: Time = 28.6 s.
oceanWave3D: deltaT = 0.00875 s.

oceanWave3D: Time = 28.61 s.
oceanWave3D: deltaT = 0.01 s.

oceanWave3D: Time = 28.62 s.
oceanWave3D: deltaT = 0.01 s.

oceanWave3D: Time = 28.63 s.
oceanWave3D: deltaT = 0.01 s.

oceanWave3D: Time = 28.64 s.
oceanWave3D: deltaT = 0.01 s.

oceanWave3D: Time = 28.65 s.
oceanWave3D: deltaT = 0.01 s.

oceanWave3D: Time = 28.66 s.
oceanWave3D: deltaT = 0.01 s.

oceanWave3D: Time = 28.67 s.
oceanWave3D: deltaT = 0.01 s.

oceanWave3D: Time = 28.68 s.
oceanWave3D: deltaT = 0.01 s.

oceanWave3D: Time = 28.69 s.
oceanWave3D: deltaT = 0.01 s.

oceanWave3D: Time = 28.7 s.
oceanWave3D: deltaT = 0.01 s.

oceanWave3D: Time = 28.71 s.
oceanWave3D: deltaT = 0.01 s.

oceanWave3D: Time = 28.72 s.
oceanWave3D: deltaT = 0.01 s.

oceanWave3D: Time = 28.73 s.
oceanWave3D: deltaT = 0.01 s.

oceanWave3D: Time = 28.74 s.
oceanWave3D: deltaT = 0.01 s.

oceanWave3D: Time = 28.75 s.
oceanWave3D: deltaT = 0.01 s.

oceanWave3D: Time = 28.7583 s.
oceanWave3D: deltaT = 0.00833333 s.

oceanWave3D: Time = 28.7667 s.
oceanWave3D: deltaT = 0.00833333 s.

oceanWave3D: Time = 28.775 s.
oceanWave3D: deltaT = 0.00833333 s.

oceanWave3D: Time = 28.7833 s.
oceanWave3D: deltaT = 0.00833333 s.

oceanWave3D: Time = 28.7917 s.
oceanWave3D: deltaT = 0.00833333 s.

oceanWave3D: Time = 28.8 s.
oceanWave3D: deltaT = 0.00833333 s.

oceanWave3D: Time = 28.81 s.
oceanWave3D: deltaT = 0.01 s.

oceanWave3D: Time = 28.82 s.
oceanWave3D: deltaT = 0.01 s.

oceanWave3D: Time = 28.83 s.
oceanWave3D: deltaT = 0.01 s.

oceanWave3D: Time = 28.84 s.
oceanWave3D: deltaT = 0.01 s.

oceanWave3D: Time = 28.85 s.
oceanWave3D: deltaT = 0.01 s.

oceanWave3D: Time = 28.86 s.
oceanWave3D: deltaT = 0.01 s.

oceanWave3D: Time = 28.87 s.
oceanWave3D: deltaT = 0.01 s.

oceanWave3D: Time = 28.88 s.
oceanWave3D: deltaT = 0.01 s.

oceanWave3D: Time = 28.89 s.
oceanWave3D: deltaT = 0.01 s.

oceanWave3D: Time = 28.9 s.
oceanWave3D: deltaT = 0.01 s.

oceanWave3D: Time = 28.91 s.
oceanWave3D: deltaT = 0.01 s.

oceanWave3D: Time = 28.92 s.
oceanWave3D: deltaT = 0.01 s.

oceanWave3D: Time = 28.93 s.
oceanWave3D: deltaT = 0.01 s.

oceanWave3D: Time = 28.9387 s.
oceanWave3D: deltaT = 0.00875 s.

oceanWave3D: Time = 28.9475 s.
oceanWave3D: deltaT = 0.00875 s.

oceanWave3D: Time = 28.9562 s.
oceanWave3D: deltaT = 0.00875 s.

oceanWave3D: Time = 28.965 s.
oceanWave3D: deltaT = 0.00875 s.

oceanWave3D: Time = 28.9737 s.
oceanWave3D: deltaT = 0.00875 s.

oceanWave3D: Time = 28.9825 s.
oceanWave3D: deltaT = 0.00875 s.

oceanWave3D: Time = 28.9913 s.
oceanWave3D: deltaT = 0.00875 s.

oceanWave3D: Time = 29 s.
oceanWave3D: deltaT = 0.00875 s.

oceanWave3D: Time = 29.0095 s.
oceanWave3D: deltaT = 0.00952381 s.

oceanWave3D: Time = 29.019 s.
oceanWave3D: deltaT = 0.00952381 s.

oceanWave3D: Time = 29.0286 s.
oceanWave3D: deltaT = 0.00952381 s.

oceanWave3D: Time = 29.0381 s.
oceanWave3D: deltaT = 0.00952381 s.

oceanWave3D: Time = 29.0476 s.
oceanWave3D: deltaT = 0.00952381 s.

oceanWave3D: Time = 29.0571 s.
oceanWave3D: deltaT = 0.00952381 s.

oceanWave3D: Time = 29.0667 s.
oceanWave3D: deltaT = 0.00952381 s.

oceanWave3D: Time = 29.0762 s.
oceanWave3D: deltaT = 0.00952381 s.

oceanWave3D: Time = 29.0857 s.
oceanWave3D: deltaT = 0.00952381 s.

oceanWave3D: Time = 29.0952 s.
oceanWave3D: deltaT = 0.00952381 s.

oceanWave3D: Time = 29.1048 s.
oceanWave3D: deltaT = 0.00952381 s.

oceanWave3D: Time = 29.1143 s.
oceanWave3D: deltaT = 0.00952381 s.

oceanWave3D: Time = 29.1238 s.
oceanWave3D: deltaT = 0.00952381 s.

oceanWave3D: Time = 29.1333 s.
oceanWave3D: deltaT = 0.00952381 s.

oceanWave3D: Time = 29.1429 s.
oceanWave3D: deltaT = 0.00952381 s.

oceanWave3D: Time = 29.1524 s.
oceanWave3D: deltaT = 0.00952381 s.

oceanWave3D: Time = 29.1619 s.
oceanWave3D: deltaT = 0.00952381 s.

oceanWave3D: Time = 29.1714 s.
oceanWave3D: deltaT = 0.00952381 s.

oceanWave3D: Time = 29.181 s.
oceanWave3D: deltaT = 0.00952381 s.

oceanWave3D: Time = 29.1905 s.
oceanWave3D: deltaT = 0.00952381 s.

oceanWave3D: Time = 29.2 s.
oceanWave3D: deltaT = 0.00952381 s.

oceanWave3D: Time = 29.21 s.
oceanWave3D: deltaT = 0.01 s.

oceanWave3D: Time = 29.22 s.
oceanWave3D: deltaT = 0.01 s.

oceanWave3D: Time = 29.23 s.
oceanWave3D: deltaT = 0.01 s.

oceanWave3D: Time = 29.24 s.
oceanWave3D: deltaT = 0.01 s.

oceanWave3D: Time = 29.25 s.
oceanWave3D: deltaT = 0.01 s.

oceanWave3D: Time = 29.26 s.
oceanWave3D: deltaT = 0.01 s.

oceanWave3D: Time = 29.27 s.
oceanWave3D: deltaT = 0.01 s.

oceanWave3D: Time = 29.28 s.
oceanWave3D: deltaT = 0.01 s.

oceanWave3D: Time = 29.29 s.
oceanWave3D: deltaT = 0.01 s.

oceanWave3D: Time = 29.3 s.
oceanWave3D: deltaT = 0.01 s.

oceanWave3D: Time = 29.31 s.
oceanWave3D: deltaT = 0.01 s.

oceanWave3D: Time = 29.32 s.
oceanWave3D: deltaT = 0.01 s.

oceanWave3D: Time = 29.33 s.
oceanWave3D: deltaT = 0.01 s.

oceanWave3D: Time = 29.34 s.
oceanWave3D: deltaT = 0.01 s.

oceanWave3D: Time = 29.35 s.
oceanWave3D: deltaT = 0.01 s.

oceanWave3D: Time = 29.3583 s.
oceanWave3D: deltaT = 0.00833333 s.

   Loop no.     3030   Time =   27.7300 sec.
 time step number         3030  t=   27.740000000000002     
 An average of    10.44 GMRES iterations done per solve.
   Minimum no.        1 and maximum no.       16 iterations per solve
   Loop no.     3040   Time =   27.8200 sec.
 time step number         3040  t=   27.830000000000005     
 An average of    10.44 GMRES iterations done per solve.
   Minimum no.        1 and maximum no.       16 iterations per solve
   Loop no.     3050   Time =   27.9200 sec.
 time step number         3050  t=   27.930000000000000     
 An average of    10.44 GMRES iterations done per solve.
   Minimum no.        1 and maximum no.       16 iterations per solve
   Loop no.     3060   Time =   28.0095 sec.
 time step number         3060  t=   28.019047619047619     
 An average of    10.44 GMRES iterations done per solve.
   Minimum no.        1 and maximum no.       16 iterations per solve
   Loop no.     3070   Time =   28.1048 sec.
 time step number         3070  t=   28.114285714285714     
 An average of    10.45 GMRES iterations done per solve.
   Minimum no.        1 and maximum no.       16 iterations per solve
   Loop no.     3080   Time =   28.2000 sec.
 time step number         3080  t=   28.210000000000004     
 An average of    10.45 GMRES iterations done per solve.
   Minimum no.        1 and maximum no.       16 iterations per solve
   Loop no.     3090   Time =   28.3000 sec.
 time step number         3090  t=   28.310000000000002     
 An average of    10.46 GMRES iterations done per solve.
   Minimum no.        1 and maximum no.       16 iterations per solve
   Loop no.     3100   Time =   28.3917 sec.
 time step number         3100  t=   28.400000000000002     
 An average of    10.46 GMRES iterations done per solve.
   Minimum no.        1 and maximum no.       16 iterations per solve
   Loop no.     3110   Time =   28.4900 sec.
 time step number         3110  t=   28.500000000000004     
 An average of    10.46 GMRES iterations done per solve.
   Minimum no.        1 and maximum no.       16 iterations per solve
   Loop no.     3120   Time =   28.5825 sec.
 time step number         3120  t=   28.591250000000002     
 An average of    10.46 GMRES iterations done per solve.
   Minimum no.        1 and maximum no.       16 iterations per solve
   Loop no.     3130   Time =   28.6800 sec.
 time step number         3130  t=   28.690000000000005     
 An average of    10.47 GMRES iterations done per solve.
   Minimum no.        1 and maximum no.       16 iterations per solve
   Loop no.     3140   Time =   28.7750 sec.
 time step number         3140  t=   28.783333333333331     
 An average of    10.47 GMRES iterations done per solve.
   Minimum no.        1 and maximum no.       16 iterations per solve
   Loop no.     3150   Time =   28.8700 sec.
 time step number         3150  t=   28.880000000000003     
 An average of    10.47 GMRES iterations done per solve.
   Minimum no.        1 and maximum no.       16 iterations per solve
   Loop no.     3160   Time =   28.9650 sec.
 time step number         3160  t=   28.973749999999995     
 An average of    10.47 GMRES iterations done per solve.
   Minimum no.        1 and maximum no.       16 iterations per solve
   Loop no.     3170   Time =   29.0571 sec.
 time step number         3170  t=   29.066666666666666     
 An average of    10.47 GMRES iterations done per solve.
   Minimum no.        1 and maximum no.       16 iterations per solve
   Loop no.     3180   Time =   29.1524 sec.
 time step number         3180  t=   29.161904761904761     
 An average of    10.47 GMRES iterations done per solve.
   Minimum no.        1 and maximum no.       16 iterations per solve
   Loop no.     3190   Time =   29.2500 sec.
 time step number         3190  t=   29.260000000000005     
 An average of    10.47 GMRES iterations done per solve.
   Minimum no.        1 and maximum no.       16 iterations per solve
   Loop no.     3200   Time =   29.3500 sec.
 time step number         3200  t=   29.358333333333334     
 An average of    10.47 GMRES iterations done per solve.
oceanWave3D: Time = 29.3667 s.
oceanWave3D: deltaT = 0.00833333 s.

oceanWave3D: Time = 29.375 s.
oceanWave3D: deltaT = 0.00833333 s.

oceanWave3D: Time = 29.3833 s.
oceanWave3D: deltaT = 0.00833333 s.

oceanWave3D: Time = 29.3917 s.
oceanWave3D: deltaT = 0.00833333 s.

oceanWave3D: Time = 29.4 s.
oceanWave3D: deltaT = 0.00833333 s.

oceanWave3D: Time = 29.41 s.
oceanWave3D: deltaT = 0.01 s.

oceanWave3D: Time = 29.42 s.
oceanWave3D: deltaT = 0.01 s.

oceanWave3D: Time = 29.43 s.
oceanWave3D: deltaT = 0.01 s.

oceanWave3D: Time = 29.44 s.
oceanWave3D: deltaT = 0.01 s.

oceanWave3D: Time = 29.45 s.
oceanWave3D: deltaT = 0.01 s.

oceanWave3D: Time = 29.46 s.
oceanWave3D: deltaT = 0.01 s.

oceanWave3D: Time = 29.47 s.
oceanWave3D: deltaT = 0.01 s.

oceanWave3D: Time = 29.48 s.
oceanWave3D: deltaT = 0.01 s.

oceanWave3D: Time = 29.49 s.
oceanWave3D: deltaT = 0.01 s.

oceanWave3D: Time = 29.5 s.
oceanWave3D: deltaT = 0.01 s.

oceanWave3D: Time = 29.51 s.
oceanWave3D: deltaT = 0.01 s.

oceanWave3D: Time = 29.52 s.
oceanWave3D: deltaT = 0.01 s.

oceanWave3D: Time = 29.53 s.
oceanWave3D: deltaT = 0.01 s.

oceanWave3D: Time = 29.5388 s.
oceanWave3D: deltaT = 0.00875 s.

oceanWave3D: Time = 29.5475 s.
oceanWave3D: deltaT = 0.00875 s.

oceanWave3D: Time = 29.5562 s.
oceanWave3D: deltaT = 0.00875 s.

oceanWave3D: Time = 29.565 s.
oceanWave3D: deltaT = 0.00875 s.

oceanWave3D: Time = 29.5737 s.
oceanWave3D: deltaT = 0.00875 s.

oceanWave3D: Time = 29.5825 s.
oceanWave3D: deltaT = 0.00875 s.

oceanWave3D: Time = 29.5913 s.
oceanWave3D: deltaT = 0.00875 s.

oceanWave3D: Time = 29.6 s.
oceanWave3D: deltaT = 0.00875 s.

oceanWave3D: Time = 29.61 s.
oceanWave3D: deltaT = 0.01 s.

oceanWave3D: Time = 29.62 s.
oceanWave3D: deltaT = 0.01 s.

oceanWave3D: Time = 29.63 s.
oceanWave3D: deltaT = 0.01 s.

oceanWave3D: Time = 29.64 s.
oceanWave3D: deltaT = 0.01 s.

oceanWave3D: Time = 29.65 s.
oceanWave3D: deltaT = 0.01 s.

oceanWave3D: Time = 29.66 s.
oceanWave3D: deltaT = 0.01 s.

oceanWave3D: Time = 29.67 s.
oceanWave3D: deltaT = 0.01 s.

oceanWave3D: Time = 29.68 s.
oceanWave3D: deltaT = 0.01 s.

oceanWave3D: Time = 29.69 s.
oceanWave3D: deltaT = 0.01 s.

oceanWave3D: Time = 29.7 s.
oceanWave3D: deltaT = 0.01 s.

oceanWave3D: Time = 29.71 s.
oceanWave3D: deltaT = 0.01 s.

oceanWave3D: Time = 29.72 s.
oceanWave3D: deltaT = 0.01 s.

oceanWave3D: Time = 29.73 s.
oceanWave3D: deltaT = 0.01 s.

oceanWave3D: Time = 29.74 s.
oceanWave3D: deltaT = 0.01 s.

oceanWave3D: Time = 29.75 s.
oceanWave3D: deltaT = 0.01 s.

oceanWave3D: Time = 29.7583 s.
oceanWave3D: deltaT = 0.00833333 s.

oceanWave3D: Time = 29.7667 s.
oceanWave3D: deltaT = 0.00833333 s.

oceanWave3D: Time = 29.775 s.
oceanWave3D: deltaT = 0.00833333 s.

oceanWave3D: Time = 29.7833 s.
oceanWave3D: deltaT = 0.00833333 s.

oceanWave3D: Time = 29.7917 s.
oceanWave3D: deltaT = 0.00833333 s.

oceanWave3D: Time = 29.8 s.
oceanWave3D: deltaT = 0.00833333 s.

oceanWave3D: Time = 29.81 s.
oceanWave3D: deltaT = 0.01 s.

oceanWave3D: Time = 29.82 s.
oceanWave3D: deltaT = 0.01 s.

oceanWave3D: Time = 29.83 s.
oceanWave3D: deltaT = 0.01 s.

oceanWave3D: Time = 29.84 s.
oceanWave3D: deltaT = 0.01 s.

oceanWave3D: Time = 29.85 s.
oceanWave3D: deltaT = 0.01 s.

oceanWave3D: Time = 29.86 s.
oceanWave3D: deltaT = 0.01 s.

oceanWave3D: Time = 29.87 s.
oceanWave3D: deltaT = 0.01 s.

oceanWave3D: Time = 29.88 s.
oceanWave3D: deltaT = 0.01 s.

oceanWave3D: Time = 29.89 s.
oceanWave3D: deltaT = 0.01 s.

oceanWave3D: Time = 29.9 s.
oceanWave3D: deltaT = 0.01 s.

oceanWave3D: Time = 29.91 s.
oceanWave3D: deltaT = 0.01 s.

oceanWave3D: Time = 29.92 s.
oceanWave3D: deltaT = 0.01 s.

oceanWave3D: Time = 29.93 s.
oceanWave3D: deltaT = 0.01 s.

oceanWave3D: Time = 29.9387 s.
oceanWave3D: deltaT = 0.00875 s.

oceanWave3D: Time = 29.9475 s.
oceanWave3D: deltaT = 0.00875 s.

oceanWave3D: Time = 29.9562 s.
oceanWave3D: deltaT = 0.00875 s.

oceanWave3D: Time = 29.965 s.
oceanWave3D: deltaT = 0.00875 s.

oceanWave3D: Time = 29.9737 s.
oceanWave3D: deltaT = 0.00875 s.

oceanWave3D: Time = 29.9825 s.
oceanWave3D: deltaT = 0.00875 s.

oceanWave3D: Time = 29.9913 s.
oceanWave3D: deltaT = 0.00875 s.

oceanWave3D: Time = 30 s.
oceanWave3D: deltaT = 0.00875 s.

oceanWave3D: Time = 30.0095 s.
oceanWave3D: deltaT = 0.00952381 s.



--> FOAM FATAL ERROR: 
This is not a FatalError, but it is a simple way to stop the execution. 

    From function void oceanWave3D::step()
    in file waveTheories/externalWaveForcing/oceanWave3D/oceanWave3D.C at line 421.

FOAM exiting

   Minimum no.        1 and maximum no.       16 iterations per solve
   Loop no.     3210   Time =   29.4400 sec.
 time step number         3210  t=   29.450000000000003     
 An average of    10.47 GMRES iterations done per solve.
   Minimum no.        1 and maximum no.       16 iterations per solve
   Loop no.     3220   Time =   29.5388 sec.
 time step number         3220  t=   29.547499999999999     
 An average of    10.47 GMRES iterations done per solve.
   Minimum no.        1 and maximum no.       16 iterations per solve
   Loop no.     3230   Time =   29.6300 sec.
 time step number         3230  t=   29.640000000000004     
 An average of    10.47 GMRES iterations done per solve.
   Minimum no.        1 and maximum no.       16 iterations per solve
   Loop no.     3240   Time =   29.7300 sec.
 time step number         3240  t=   29.740000000000002     
 An average of    10.47 GMRES iterations done per solve.
   Minimum no.        1 and maximum no.       16 iterations per solve
   Loop no.     3250   Time =   29.8200 sec.
 time step number         3250  t=   29.830000000000005     
 An average of    10.47 GMRES iterations done per solve.
   Minimum no.        1 and maximum no.       16 iterations per solve
   Loop no.     3260   Time =   29.9200 sec.
 time step number         3260  t=   29.930000000000000     
 An average of    10.47 GMRES iterations done per solve.
   Minimum no.        1 and maximum no.       16 iterations per solve
