/*---------------------------------------------------------------------------*\
| =========                 |                                                 |
| \\      /  F ield         | OpenFOAM: The Open Source CFD Toolbox           |
|  \\    /   O peration     | Version:  3.0.1                                 |
|   \\  /    A nd           | Web:      www.OpenFOAM.org                      |
|    \\/     M anipulation  |                                                 |
\*---------------------------------------------------------------------------*/
Build  : 3.0.1-d8a290b55d28
Exec   : waveFoam
Date   : Jun 28 2018
Time   : 16:16:21
Host   : "RN1"
PID    : 6058
Case   : /home/rn1/OpenFOAM/rn1-3.0.1/applications/utilities/2-way-coupling/tutorials/2WayCouplingOceanWave3D/test
nProcs : 1
sigFpe : Enabling floating point exception trapping (FOAM_SIGFPE).
fileModificationChecking : Monitoring run-time modified files using timeStampMaster
allowSystemOperations : Allowing user-supplied system call operations

// * * * * * * * * * * * * * * * * * * * * * * * * * * * * * * * * * * * * * //
Create time

Create mesh for time = 0

// using new solver syntax:
pcorr
{
    solver          GAMG;
    tolerance       1e-07;
    relTol          0;
    smoother        DIC;
    nPreSweeps      0;
    nPostSweeps     2;
    nFinestSweeps   2;
    cacheAgglomeration true;
    nCellsInCoarsestLevel 10;
    agglomerator    faceAreaPair;
    mergeLevels     1;
}

// using new solver syntax:
p_rgh
{
    solver          GAMG;
    tolerance       1e-07;
    relTol          0;
    smoother        DIC;
    nPreSweeps      0;
    nPostSweeps     2;
    nFinestSweeps   2;
    cacheAgglomeration true;
    nCellsInCoarsestLevel 10;
    agglomerator    faceAreaPair;
    mergeLevels     1;
}

// using new solver syntax:
p_rghFinal
{
    solver          GAMG;
    tolerance       1e-08;
    relTol          0;
    smoother        DIC;
    nPreSweeps      0;
    nPostSweeps     2;
    nFinestSweeps   2;
    cacheAgglomeration true;
    nCellsInCoarsestLevel 10;
    agglomerator    faceAreaPair;
    mergeLevels     1;
}

// using new solver syntax:
U
{
    solver          PBiCG;
    preconditioner  DILU;
    tolerance       1e-09;
    relTol          0;
}

// using new solver syntax:
UFinal
{
    solver          PBiCG;
    preconditioner  DILU;
    tolerance       1e-09;
    relTol          0;
}

// using new solver syntax:
gamma
{
    solver          PBiCG;
    preconditioner  DILU;
    tolerance       1e-07;
    relTol          0;
}


PIMPLE: Operating solver in PISO mode


Reading g

Reading waveProperties

Reading waveProperties

*********************************************************
***                                                   ***
*** OceanWave3D - a coastal engineering tool for      ***
*** simulation of nonlinear free surface waves.       ***
*** Copyright (C) 2009 Allan P. Engsig-Karup.         ***
***                                                   ***
*** This OceanWave3D program comes with ABSOLUTELY NO ***
*** WARRANTY. It is distributed under the conditions  ***
*** of the GNU General Public License version 3.      ***
***                                                   ***
***     Software library developed in 2009 by         ***
***                                                   ***
***     Allan P. Engsig-Karup                         ***
***     Guillaume Ducrozet                            ***
***                                                   ***
*** At DTU Informatics                                ***
***    Scientific Computing Section                   ***
***    Technical University of Denmark                ***
***                                                   ***
***     Original software library written in 2007 by  ***
***                                                   ***
***     Allan P. Engsig-Karup                         ***
***     Harry B. Bingham                              ***
***                                                   ***
*** At Department of Mechanical Engineering           ***
***    Coastal, Maritime and Structural Eng. Section  ***
***    Technical University of Denmark                ***
***                                                   ***
*********************************************************

   Input file with model parameters : OceanWave3D.inp                         

   Header title.................... : Header                                                                  

   PARAMETER INPUT

   Initial Condition (IC), Predefined :   0

   Local filtering downward vertical acceleration limit is: ********
 * g m/s^2.  Theoretically breaking should occur between 0.5 and 1.


   Bathymetry                         : Predefined (in setup for IC)
   (Nx,Ny,Nz)=(  500,    1,   15)
   Size of dx: .8016E-01

   The problem is without a y-dimension.

   Uneven node-distribution in Z
   Ghost point layer included below bottom.

   Half-width stencils: (alpha,beta,gamma)=( 3, 0, 3)
   Half-width stencils: (alpha,beta,gamma)=( 1, 0, 1) (Preconditioner)
  
 Starting time for this run is    0.0000000000000000     
   Number of time steps chosen:    10000
   Size of time increment: .1000E-01
    Time-integration method: Classical Runge-Kutta fourth order
    GMRES method is chosen.
    Strategy: GMRES + LU (order            2 )
    Tolerance levels user-defined. RelTol =    1.0000000000000000E-008  and AbsTol =    9.9999999999999995E-007
 
           0  wave gauge(s) requested in file(s) named "waveGauges.dat".
  
   Fully nonlinear model is employed.

 No free-surface pressure term is being applied.  

    SG(          13 ,          10 )-filtering will be employed after every            1  time step.
  
 No breaking model line found, the feature is off.
  
     Total relaxation zones defined:            1
  
 Found            1  pressure damping zones.
   Standard Cartesian model employed.

 format type 1:           0
 FilterInit:  Boundary filtering is turned on with values:
   8.0000000000000002E-002   8.0000000000000002E-002  0.40000000000000002     
  
 Initializing variables and arrays.
 Relaxation zone setup:
  Zone  1: idx=(     2,    65,     1,     1)
   Relaxation zones have been setup.
      SF solution: k=   1.6729156711127393      ,h=  0.40000000000000002      ,H=  0.10000000000000001      ,T=   2.0000000000000000      ,L=   100.00000000000000     
                   kh=  0.66916626844509575      ,c=   50.000000000000000     
 The incident wave is a stream function wave with L=0.375583E+01
  T=0.200000E+01 H=0.100000E+00 u_E=-.156747E-01 and u_S=0.000000E+00


 setup ICs...
 IC chosen is case            0
 Initial condition is still water.
 done with ICs
OF-time: 0
OCW-time: 0
Interval: [15, 30]
Identical starting times for OceanWave3D and OpenFoam
Reading field p_rgh

Reading field U

Reading/calculating face flux field phi

Reading transportProperties

Selecting incompressible transport model Newtonian
Selecting incompressible transport model Newtonian
Selecting turbulence model type laminar
No MRF models present

No finite volume options present

GAMG:  Solving for pcorr, Initial residual = 1.81469e-291, Final residual = 1.81469e-291, No Iterations 0
GAMG:  Solving for pcorr, Initial residual = 1.81469e-291, Final residual = 1.81469e-291, No Iterations 0
time step continuity errors : sum local = 1.68613e-314, global = -6.13149e-315, cumulative = -6.13149e-315
Courant Number mean: 3.5921e-312 max: 1.64789e-311

Starting time loop

Courant Number mean: 3.5921e-312 max: 1.64789e-311
Interface Courant Number mean: 5.07099e-315 max: 9.63051e-312
deltaT = 0.0011976
Time = 0.0011976

oceanWave3D: Time = 0.00262784 s.
oceanWave3D: deltaT = 0.00143023 s.

oceanWave3D: Time = 0.00432932 s.
oceanWave3D: deltaT = 0.00170148 s.

oceanWave3D: Time = 0.00636756 s.
oceanWave3D: deltaT = 0.00203824 s.

oceanWave3D: Time = 0.00878796 s.
oceanWave3D: deltaT = 0.00242041 s.

oceanWave3D: Time = 0.0116851 s.
oceanWave3D: deltaT = 0.00289715 s.

oceanWave3D: Time = 0.015109 s.
oceanWave3D: deltaT = 0.00342391 s.

oceanWave3D: Time = 0.0191284 s.
oceanWave3D: deltaT = 0.00401937 s.

oceanWave3D: Time = 0.0238882 s.
oceanWave3D: deltaT = 0.00475978 s.

oceanWave3D: Time = 0.0295692 s.
oceanWave3D: deltaT = 0.00568103 s.

  
 Pressure damping zone            1  will be applied from x=   30.060120240480963       to x=   40.000000000000000     
                                         and from y=   1.0000000000000000       to y=   1.0000000000000000     
  
  
 PreprocessPDampingZones:  Factoring the Laplacian matrix.
  
 Pressure damping zones are set up
  
   Preconditioner: DIRECT LU ( 2 order, linear)
 Building stencils...
   Preconditioning matrix generated.
 workspaceSize =       201151
 Determine finite difference stencils for the system matrix...
 Building stencils...
 ...done!
          -1
           1
    ITERATIVE SOLVER WORKSPACE SIZE =       201151
 A total of       28 GMRES iterations done.
 A total of       14 GMRES iterations done in first time step.
 An average of     7.00 GMRES iterations done per solve.
   Minimum no.        1 and maximum no.        6 iterations per solve
 A total of       42 GMRES iterations done.
 A total of       14 GMRES iterations done in first time step.
 An average of     5.25 GMRES iterations done per solve.
   Minimum no.        1 and maximum no.        6 iterations per solve
 An average of     7.00 GMRES iterations done per solve excluding first time step iteration counts.
   Minimum no.        1 and maximum no.        6 iterations per solve excluding first time step solves
 A total of       57 GMRES iterations done.
 A total of       14 GMRES iterations done in first time step.
 An average of     4.75 GMRES iterations done per solve.
   Minimum no.        1 and maximum no.        7 iterations per solve
 An average of     5.38 GMRES iterations done per solve excluding first time step iteration counts.
   Minimum no.        1 and maximum no.        7 iterations per solve excluding first time step solves
 A total of       72 GMRES iterations done.
 A total of       14 GMRES iterations done in first time step.
 An average of     4.50 GMRES iterations done per solve.
   Minimum no.        1 and maximum no.        7 iterations per solve
 An average of     4.83 GMRES iterations done per solve excluding first time step iteration counts.
   Minimum no.        1 and maximum no.        7 iterations per solve excluding first time step solves
 A total of       89 GMRES iterations done.
 A total of       14 GMRES iterations done in first time step.
 An average of     4.45 GMRES iterations done per solve.
   Minimum no.        1 and maximum no.        7 iterations per solve
 An average of     4.69 GMRES iterations done per solve excluding first time step iteration counts.
   Minimum no.        1 and maximum no.        7 iterations per solve excluding first time step solves
 A total of      106 GMRES iterations done.
 A total of       14 GMRES iterations done in first time step.
 An average of     4.42 GMRES iterations done per solve.
   Minimum no.        1 and maximum no.        7 iterations per solve
 An average of     4.60 GMRES iterations done per solve excluding first time step iteration counts.
   Minimum no.        1 and maximum no.        7 iterations per solve excluding first time step solves
 A total of      123 GMRES iterations done.
 A total of       14 GMRES iterations done in first time step.
 An average of     4.39 GMRES iterations done per solve.
   Minimum no.        1 and maximum no.        7 iterations per solve
 An average of     4.54 GMRES iterations done per solve excluding first time step iteration counts.
   Minimum no.        1 and maximum no.        7 iterations per solve excluding first time step solves
 A total of      141 GMRES iterations done.
 A total of       14 GMRES iterations done in first time step.
 An average of     4.41 GMRES iterations done per solve.
   Minimum no.        1 and maximum no.        8 iterations per solve
 An average of     4.54 GMRES iterations done per solve excluding first time step iteration counts.
   Minimum no.        1 and maximum no.        8 iterations per solve excluding first time step solves
   Loop no.       10   Time =    0.0239 sec.
 time step number           10  t=   2.9569197777794341E-002
 An average of     4.47 GMRES iterations done per solve.
oceanWave3D: Time = 0.0361242 s.
oceanWave3D: deltaT = 0.00655503 s.

oceanWave3D: Time = 0.0439278 s.
oceanWave3D: deltaT = 0.00780361 s.

oceanWave3D: Time = 0.0531086 s.
oceanWave3D: deltaT = 0.00918072 s.

oceanWave3D: Time = 0.0629013 s.
oceanWave3D: deltaT = 0.00979276 s.

oceanWave3D: Time = 0.0726941 s.
oceanWave3D: deltaT = 0.00979276 s.

oceanWave3D: Time = 0.0824868 s.
oceanWave3D: deltaT = 0.00979276 s.

oceanWave3D: Time = 0.0922796 s.
oceanWave3D: deltaT = 0.00979276 s.

oceanWave3D: Time = 0.102072 s.
oceanWave3D: deltaT = 0.00979276 s.

oceanWave3D: Time = 0.111865 s.
oceanWave3D: deltaT = 0.00979276 s.

oceanWave3D: Time = 0.121658 s.
oceanWave3D: deltaT = 0.00979276 s.

oceanWave3D: Time = 0.131451 s.
oceanWave3D: deltaT = 0.00979276 s.

oceanWave3D: Time = 0.141243 s.
oceanWave3D: deltaT = 0.00979276 s.

oceanWave3D: Time = 0.151036 s.
oceanWave3D: deltaT = 0.00979276 s.

oceanWave3D: Time = 0.160829 s.
oceanWave3D: deltaT = 0.00979276 s.

oceanWave3D: Time = 0.170622 s.
oceanWave3D: deltaT = 0.00979276 s.

oceanWave3D: Time = 0.180414 s.
oceanWave3D: deltaT = 0.00979276 s.

oceanWave3D: Time = 0.190207 s.
oceanWave3D: deltaT = 0.00979276 s.

oceanWave3D: Time = 0.2 s.
oceanWave3D: deltaT = 0.00979276 s.

oceanWave3D: Time = 0.209524 s.
oceanWave3D: deltaT = 0.00952381 s.

oceanWave3D: Time = 0.219048 s.
oceanWave3D: deltaT = 0.00952381 s.

oceanWave3D: Time = 0.228571 s.
oceanWave3D: deltaT = 0.00952381 s.

oceanWave3D: Time = 0.238095 s.
oceanWave3D: deltaT = 0.00952381 s.

oceanWave3D: Time = 0.247619 s.
oceanWave3D: deltaT = 0.00952381 s.

oceanWave3D: Time = 0.257143 s.
oceanWave3D: deltaT = 0.00952381 s.

oceanWave3D: Time = 0.266667 s.
oceanWave3D: deltaT = 0.00952381 s.

oceanWave3D: Time = 0.27619 s.
oceanWave3D: deltaT = 0.00952381 s.

oceanWave3D: Time = 0.285714 s.
oceanWave3D: deltaT = 0.00952381 s.

oceanWave3D: Time = 0.295238 s.
oceanWave3D: deltaT = 0.00952381 s.

oceanWave3D: Time = 0.304762 s.
oceanWave3D: deltaT = 0.00952381 s.

oceanWave3D: Time = 0.314286 s.
oceanWave3D: deltaT = 0.00952381 s.

oceanWave3D: Time = 0.32381 s.
oceanWave3D: deltaT = 0.00952381 s.

oceanWave3D: Time = 0.333333 s.
oceanWave3D: deltaT = 0.00952381 s.

oceanWave3D: Time = 0.342857 s.
oceanWave3D: deltaT = 0.00952381 s.

oceanWave3D: Time = 0.352381 s.
oceanWave3D: deltaT = 0.00952381 s.

oceanWave3D: Time = 0.361905 s.
oceanWave3D: deltaT = 0.00952381 s.

oceanWave3D: Time = 0.371429 s.
oceanWave3D: deltaT = 0.00952381 s.

oceanWave3D: Time = 0.380952 s.
oceanWave3D: deltaT = 0.00952381 s.

oceanWave3D: Time = 0.390476 s.
oceanWave3D: deltaT = 0.00952381 s.

oceanWave3D: Time = 0.4 s.
oceanWave3D: deltaT = 0.00952381 s.

oceanWave3D: Time = 0.409524 s.
oceanWave3D: deltaT = 0.00952381 s.

oceanWave3D: Time = 0.419048 s.
oceanWave3D: deltaT = 0.00952381 s.

oceanWave3D: Time = 0.428571 s.
oceanWave3D: deltaT = 0.00952381 s.

oceanWave3D: Time = 0.438095 s.
oceanWave3D: deltaT = 0.00952381 s.

oceanWave3D: Time = 0.447619 s.
oceanWave3D: deltaT = 0.00952381 s.

oceanWave3D: Time = 0.457143 s.
oceanWave3D: deltaT = 0.00952381 s.

oceanWave3D: Time = 0.466667 s.
oceanWave3D: deltaT = 0.00952381 s.

oceanWave3D: Time = 0.47619 s.
oceanWave3D: deltaT = 0.00952381 s.

oceanWave3D: Time = 0.485714 s.
oceanWave3D: deltaT = 0.00952381 s.

oceanWave3D: Time = 0.495238 s.
oceanWave3D: deltaT = 0.00952381 s.

oceanWave3D: Time = 0.504762 s.
oceanWave3D: deltaT = 0.00952381 s.

oceanWave3D: Time = 0.514286 s.
oceanWave3D: deltaT = 0.00952381 s.

oceanWave3D: Time = 0.52381 s.
oceanWave3D: deltaT = 0.00952381 s.

oceanWave3D: Time = 0.533333 s.
oceanWave3D: deltaT = 0.00952381 s.

oceanWave3D: Time = 0.542857 s.
oceanWave3D: deltaT = 0.00952381 s.

oceanWave3D: Time = 0.552381 s.
oceanWave3D: deltaT = 0.00952381 s.

oceanWave3D: Time = 0.561905 s.
oceanWave3D: deltaT = 0.00952381 s.

oceanWave3D: Time = 0.571429 s.
oceanWave3D: deltaT = 0.00952381 s.

oceanWave3D: Time = 0.580952 s.
oceanWave3D: deltaT = 0.00952381 s.

oceanWave3D: Time = 0.590476 s.
oceanWave3D: deltaT = 0.00952381 s.

oceanWave3D: Time = 0.6 s.
oceanWave3D: deltaT = 0.00952381 s.

oceanWave3D: Time = 0.61 s.
oceanWave3D: deltaT = 0.01 s.

oceanWave3D: Time = 0.62 s.
oceanWave3D: deltaT = 0.01 s.

oceanWave3D: Time = 0.63 s.
oceanWave3D: deltaT = 0.01 s.

oceanWave3D: Time = 0.64 s.
oceanWave3D: deltaT = 0.01 s.

oceanWave3D: Time = 0.65 s.
oceanWave3D: deltaT = 0.01 s.

oceanWave3D: Time = 0.66 s.
oceanWave3D: deltaT = 0.01 s.

oceanWave3D: Time = 0.67 s.
oceanWave3D: deltaT = 0.01 s.

oceanWave3D: Time = 0.68 s.
oceanWave3D: deltaT = 0.01 s.

oceanWave3D: Time = 0.69 s.
oceanWave3D: deltaT = 0.01 s.

oceanWave3D: Time = 0.7 s.
oceanWave3D: deltaT = 0.01 s.

oceanWave3D: Time = 0.71 s.
oceanWave3D: deltaT = 0.01 s.

oceanWave3D: Time = 0.72 s.
oceanWave3D: deltaT = 0.01 s.

oceanWave3D: Time = 0.73 s.
oceanWave3D: deltaT = 0.01 s.

oceanWave3D: Time = 0.74 s.
oceanWave3D: deltaT = 0.01 s.

oceanWave3D: Time = 0.75 s.
oceanWave3D: deltaT = 0.01 s.

oceanWave3D: Time = 0.76 s.
oceanWave3D: deltaT = 0.01 s.

oceanWave3D: Time = 0.77 s.
oceanWave3D: deltaT = 0.01 s.

oceanWave3D: Time = 0.78 s.
oceanWave3D: deltaT = 0.01 s.

oceanWave3D: Time = 0.79 s.
oceanWave3D: deltaT = 0.01 s.

oceanWave3D: Time = 0.8 s.
oceanWave3D: deltaT = 0.01 s.

oceanWave3D: Time = 0.81 s.
oceanWave3D: deltaT = 0.01 s.

oceanWave3D: Time = 0.82 s.
oceanWave3D: deltaT = 0.01 s.

oceanWave3D: Time = 0.83 s.
oceanWave3D: deltaT = 0.01 s.

oceanWave3D: Time = 0.84 s.
oceanWave3D: deltaT = 0.01 s.

oceanWave3D: Time = 0.85 s.
oceanWave3D: deltaT = 0.01 s.

oceanWave3D: Time = 0.86 s.
oceanWave3D: deltaT = 0.01 s.

oceanWave3D: Time = 0.87 s.
oceanWave3D: deltaT = 0.01 s.

oceanWave3D: Time = 0.88 s.
oceanWave3D: deltaT = 0.01 s.

oceanWave3D: Time = 0.89 s.
oceanWave3D: deltaT = 0.01 s.

oceanWave3D: Time = 0.9 s.
oceanWave3D: deltaT = 0.01 s.

oceanWave3D: Time = 0.91 s.
oceanWave3D: deltaT = 0.01 s.

oceanWave3D: Time = 0.92 s.
oceanWave3D: deltaT = 0.01 s.

oceanWave3D: Time = 0.93 s.
oceanWave3D: deltaT = 0.01 s.

oceanWave3D: Time = 0.94 s.
oceanWave3D: deltaT = 0.01 s.

oceanWave3D: Time = 0.95 s.
oceanWave3D: deltaT = 0.01 s.

oceanWave3D: Time = 0.96 s.
oceanWave3D: deltaT = 0.01 s.

oceanWave3D: Time = 0.97 s.
oceanWave3D: deltaT = 0.01 s.

oceanWave3D: Time = 0.98 s.
oceanWave3D: deltaT = 0.01 s.

oceanWave3D: Time = 0.99 s.
oceanWave3D: deltaT = 0.01 s.

oceanWave3D: Time = 1 s.
oceanWave3D: deltaT = 0.01 s.

oceanWave3D: Time = 1.00952 s.
oceanWave3D: deltaT = 0.00952381 s.

oceanWave3D: Time = 1.01905 s.
oceanWave3D: deltaT = 0.00952381 s.

oceanWave3D: Time = 1.02857 s.
oceanWave3D: deltaT = 0.00952381 s.

oceanWave3D: Time = 1.0381 s.
oceanWave3D: deltaT = 0.00952381 s.

oceanWave3D: Time = 1.04762 s.
oceanWave3D: deltaT = 0.00952381 s.

oceanWave3D: Time = 1.05714 s.
oceanWave3D: deltaT = 0.00952381 s.

oceanWave3D: Time = 1.06667 s.
oceanWave3D: deltaT = 0.00952381 s.

oceanWave3D: Time = 1.07619 s.
oceanWave3D: deltaT = 0.00952381 s.

oceanWave3D: Time = 1.08571 s.
oceanWave3D: deltaT = 0.00952381 s.

oceanWave3D: Time = 1.09524 s.
oceanWave3D: deltaT = 0.00952381 s.

oceanWave3D: Time = 1.10476 s.
oceanWave3D: deltaT = 0.00952381 s.

oceanWave3D: Time = 1.11429 s.
oceanWave3D: deltaT = 0.00952381 s.

oceanWave3D: Time = 1.12381 s.
oceanWave3D: deltaT = 0.00952381 s.

oceanWave3D: Time = 1.13333 s.
oceanWave3D: deltaT = 0.00952381 s.

oceanWave3D: Time = 1.14286 s.
oceanWave3D: deltaT = 0.00952381 s.

oceanWave3D: Time = 1.15238 s.
oceanWave3D: deltaT = 0.00952381 s.

oceanWave3D: Time = 1.1619 s.
oceanWave3D: deltaT = 0.00952381 s.

oceanWave3D: Time = 1.17143 s.
oceanWave3D: deltaT = 0.00952381 s.

oceanWave3D: Time = 1.18095 s.
oceanWave3D: deltaT = 0.00952381 s.

oceanWave3D: Time = 1.19048 s.
oceanWave3D: deltaT = 0.00952381 s.

oceanWave3D: Time = 1.2 s.
oceanWave3D: deltaT = 0.00952381 s.

oceanWave3D: Time = 1.21 s.
oceanWave3D: deltaT = 0.01 s.

oceanWave3D: Time = 1.22 s.
oceanWave3D: deltaT = 0.01 s.

oceanWave3D: Time = 1.23 s.
oceanWave3D: deltaT = 0.01 s.

oceanWave3D: Time = 1.24 s.
oceanWave3D: deltaT = 0.01 s.

oceanWave3D: Time = 1.25 s.
oceanWave3D: deltaT = 0.01 s.

oceanWave3D: Time = 1.26 s.
oceanWave3D: deltaT = 0.01 s.

oceanWave3D: Time = 1.27 s.
oceanWave3D: deltaT = 0.01 s.

oceanWave3D: Time = 1.28 s.
oceanWave3D: deltaT = 0.01 s.

oceanWave3D: Time = 1.29 s.
oceanWave3D: deltaT = 0.01 s.

oceanWave3D: Time = 1.3 s.
oceanWave3D: deltaT = 0.01 s.

oceanWave3D: Time = 1.31 s.
oceanWave3D: deltaT = 0.01 s.

oceanWave3D: Time = 1.32 s.
oceanWave3D: deltaT = 0.01 s.

oceanWave3D: Time = 1.33 s.
oceanWave3D: deltaT = 0.01 s.

oceanWave3D: Time = 1.34 s.
oceanWave3D: deltaT = 0.01 s.

oceanWave3D: Time = 1.35 s.
oceanWave3D: deltaT = 0.01 s.

oceanWave3D: Time = 1.36 s.
oceanWave3D: deltaT = 0.01 s.

oceanWave3D: Time = 1.37 s.
oceanWave3D: deltaT = 0.01 s.

oceanWave3D: Time = 1.38 s.
oceanWave3D: deltaT = 0.01 s.

oceanWave3D: Time = 1.39 s.
oceanWave3D: deltaT = 0.01 s.

oceanWave3D: Time = 1.4 s.
oceanWave3D: deltaT = 0.01 s.

oceanWave3D: Time = 1.41 s.
oceanWave3D: deltaT = 0.01 s.

oceanWave3D: Time = 1.42 s.
oceanWave3D: deltaT = 0.01 s.

oceanWave3D: Time = 1.43 s.
oceanWave3D: deltaT = 0.01 s.

oceanWave3D: Time = 1.44 s.
oceanWave3D: deltaT = 0.01 s.

oceanWave3D: Time = 1.45 s.
oceanWave3D: deltaT = 0.01 s.

oceanWave3D: Time = 1.46 s.
oceanWave3D: deltaT = 0.01 s.

oceanWave3D: Time = 1.47 s.
oceanWave3D: deltaT = 0.01 s.

oceanWave3D: Time = 1.48 s.
oceanWave3D: deltaT = 0.01 s.

oceanWave3D: Time = 1.49 s.
oceanWave3D: deltaT = 0.01 s.

oceanWave3D: Time = 1.5 s.
oceanWave3D: deltaT = 0.01 s.

oceanWave3D: Time = 1.51 s.
oceanWave3D: deltaT = 0.01 s.

oceanWave3D: Time = 1.52 s.
oceanWave3D: deltaT = 0.01 s.

oceanWave3D: Time = 1.53 s.
oceanWave3D: deltaT = 0.01 s.

oceanWave3D: Time = 1.54 s.
oceanWave3D: deltaT = 0.01 s.

oceanWave3D: Time = 1.55 s.
oceanWave3D: deltaT = 0.01 s.

oceanWave3D: Time = 1.56 s.
oceanWave3D: deltaT = 0.01 s.

oceanWave3D: Time = 1.57 s.
oceanWave3D: deltaT = 0.01 s.

oceanWave3D: Time = 1.58 s.
oceanWave3D: deltaT = 0.01 s.

oceanWave3D: Time = 1.59 s.
oceanWave3D: deltaT = 0.01 s.

oceanWave3D: Time = 1.6 s.
oceanWave3D: deltaT = 0.01 s.

oceanWave3D: Time = 1.61 s.
oceanWave3D: deltaT = 0.01 s.

oceanWave3D: Time = 1.62 s.
oceanWave3D: deltaT = 0.01 s.

oceanWave3D: Time = 1.63 s.
oceanWave3D: deltaT = 0.01 s.

oceanWave3D: Time = 1.64 s.
oceanWave3D: deltaT = 0.01 s.

oceanWave3D: Time = 1.65 s.
oceanWave3D: deltaT = 0.01 s.

oceanWave3D: Time = 1.66 s.
oceanWave3D: deltaT = 0.01 s.

oceanWave3D: Time = 1.67 s.
oceanWave3D: deltaT = 0.01 s.

oceanWave3D: Time = 1.68 s.
oceanWave3D: deltaT = 0.01 s.

oceanWave3D: Time = 1.69 s.
oceanWave3D: deltaT = 0.01 s.

oceanWave3D: Time = 1.7 s.
oceanWave3D: deltaT = 0.01 s.

oceanWave3D: Time = 1.71 s.
oceanWave3D: deltaT = 0.01 s.

oceanWave3D: Time = 1.72 s.
oceanWave3D: deltaT = 0.01 s.

oceanWave3D: Time = 1.73 s.
oceanWave3D: deltaT = 0.01 s.

oceanWave3D: Time = 1.74 s.
oceanWave3D: deltaT = 0.01 s.

oceanWave3D: Time = 1.75 s.
oceanWave3D: deltaT = 0.01 s.

oceanWave3D: Time = 1.76 s.
oceanWave3D: deltaT = 0.01 s.

oceanWave3D: Time = 1.77 s.
oceanWave3D: deltaT = 0.01 s.

oceanWave3D: Time = 1.78 s.
oceanWave3D: deltaT = 0.01 s.

oceanWave3D: Time = 1.79 s.
oceanWave3D: deltaT = 0.01 s.

   Minimum no.        1 and maximum no.        8 iterations per solve
   Loop no.       20   Time =    0.1119 sec.
 time step number           20  t=  0.12165789454700021     
 An average of     5.26 GMRES iterations done per solve.
   Minimum no.        1 and maximum no.        9 iterations per solve
   Loop no.       30   Time =    0.2095 sec.
 time step number           30  t=  0.21904761904761905     
 An average of     5.63 GMRES iterations done per solve.
   Minimum no.        1 and maximum no.        9 iterations per solve
   Loop no.       40   Time =    0.3048 sec.
 time step number           40  t=  0.31428571428571439     
 An average of     5.85 GMRES iterations done per solve.
   Minimum no.        1 and maximum no.        9 iterations per solve
   Loop no.       50   Time =    0.4000 sec.
 time step number           50  t=  0.40952380952380957     
 An average of     6.02 GMRES iterations done per solve.
   Minimum no.        1 and maximum no.        9 iterations per solve
   Loop no.       60   Time =    0.4952 sec.
 time step number           60  t=  0.50476190476190486     
 An average of     6.14 GMRES iterations done per solve.
   Minimum no.        1 and maximum no.        9 iterations per solve
   Loop no.       70   Time =    0.5905 sec.
 time step number           70  t=  0.60000000000000009     
 An average of     6.23 GMRES iterations done per solve.
   Minimum no.        1 and maximum no.        9 iterations per solve
   Loop no.       80   Time =    0.6900 sec.
 time step number           80  t=  0.70000000000000018     
 An average of     6.32 GMRES iterations done per solve.
   Minimum no.        1 and maximum no.       10 iterations per solve
   Loop no.       90   Time =    0.7900 sec.
 time step number           90  t=  0.80000000000000004     
 An average of     6.41 GMRES iterations done per solve.
   Minimum no.        1 and maximum no.       10 iterations per solve
   Loop no.      100   Time =    0.8900 sec.
 time step number          100  t=  0.90000000000000013     
 An average of     6.52 GMRES iterations done per solve.
   Minimum no.        1 and maximum no.       10 iterations per solve
   Loop no.      110   Time =    0.9900 sec.
 time step number          110  t=   1.0000000000000000     
 An average of     6.61 GMRES iterations done per solve.
   Minimum no.        1 and maximum no.       10 iterations per solve
   Loop no.      120   Time =    1.0857 sec.
 time step number          120  t=   1.0952380952380949     
 An average of     6.68 GMRES iterations done per solve.
   Minimum no.        1 and maximum no.       10 iterations per solve
   Loop no.      130   Time =    1.1810 sec.
 time step number          130  t=   1.1904761904761907     
 An average of     6.76 GMRES iterations done per solve.
   Minimum no.        1 and maximum no.       11 iterations per solve
   Loop no.      140   Time =    1.2800 sec.
 time step number          140  t=   1.2900000000000003     
 An average of     6.84 GMRES iterations done per solve.
   Minimum no.        1 and maximum no.       11 iterations per solve
   Loop no.      150   Time =    1.3800 sec.
 time step number          150  t=   1.3900000000000001     
 An average of     6.92 GMRES iterations done per solve.
   Minimum no.        1 and maximum no.       11 iterations per solve
   Loop no.      160   Time =    1.4800 sec.
 time step number          160  t=   1.4900000000000002     
 An average of     6.99 GMRES iterations done per solve.
   Minimum no.        1 and maximum no.       11 iterations per solve
   Loop no.      170   Time =    1.5800 sec.
 time step number          170  t=   1.5900000000000003     
 An average of     7.03 GMRES iterations done per solve.
   Minimum no.        1 and maximum no.       11 iterations per solve
   Loop no.      180   Time =    1.6800 sec.
 time step number          180  t=   1.6900000000000002     
 An average of     7.07 GMRES iterations done per solve.
   Minimum no.        1 and maximum no.       11 iterations per solve
   Loop no.      190   Time =    1.7800 sec.
 time step number          190  t=   1.7900000000000000     
oceanWave3D: Time = 1.8 s.
oceanWave3D: deltaT = 0.01 s.

oceanWave3D: Time = 1.81 s.
oceanWave3D: deltaT = 0.01 s.

oceanWave3D: Time = 1.82 s.
oceanWave3D: deltaT = 0.01 s.

oceanWave3D: Time = 1.83 s.
oceanWave3D: deltaT = 0.01 s.

oceanWave3D: Time = 1.84 s.
oceanWave3D: deltaT = 0.01 s.

oceanWave3D: Time = 1.85 s.
oceanWave3D: deltaT = 0.01 s.

oceanWave3D: Time = 1.86 s.
oceanWave3D: deltaT = 0.01 s.

oceanWave3D: Time = 1.87 s.
oceanWave3D: deltaT = 0.01 s.

oceanWave3D: Time = 1.88 s.
oceanWave3D: deltaT = 0.01 s.

oceanWave3D: Time = 1.89 s.
oceanWave3D: deltaT = 0.01 s.

oceanWave3D: Time = 1.9 s.
oceanWave3D: deltaT = 0.01 s.

oceanWave3D: Time = 1.91 s.
oceanWave3D: deltaT = 0.01 s.

oceanWave3D: Time = 1.92 s.
oceanWave3D: deltaT = 0.01 s.

oceanWave3D: Time = 1.93 s.
oceanWave3D: deltaT = 0.01 s.

oceanWave3D: Time = 1.94 s.
oceanWave3D: deltaT = 0.01 s.

oceanWave3D: Time = 1.95 s.
oceanWave3D: deltaT = 0.01 s.

oceanWave3D: Time = 1.96 s.
oceanWave3D: deltaT = 0.01 s.

oceanWave3D: Time = 1.97 s.
oceanWave3D: deltaT = 0.01 s.

oceanWave3D: Time = 1.98 s.
oceanWave3D: deltaT = 0.01 s.

oceanWave3D: Time = 1.99 s.
oceanWave3D: deltaT = 0.01 s.

oceanWave3D: Time = 2 s.
oceanWave3D: deltaT = 0.01 s.

oceanWave3D: Time = 2.00952 s.
oceanWave3D: deltaT = 0.00952381 s.

oceanWave3D: Time = 2.01905 s.
oceanWave3D: deltaT = 0.00952381 s.

oceanWave3D: Time = 2.02857 s.
oceanWave3D: deltaT = 0.00952381 s.

oceanWave3D: Time = 2.0381 s.
oceanWave3D: deltaT = 0.00952381 s.

oceanWave3D: Time = 2.04762 s.
oceanWave3D: deltaT = 0.00952381 s.

oceanWave3D: Time = 2.05714 s.
oceanWave3D: deltaT = 0.00952381 s.

oceanWave3D: Time = 2.06667 s.
oceanWave3D: deltaT = 0.00952381 s.

oceanWave3D: Time = 2.07619 s.
oceanWave3D: deltaT = 0.00952381 s.

oceanWave3D: Time = 2.08571 s.
oceanWave3D: deltaT = 0.00952381 s.

oceanWave3D: Time = 2.09524 s.
oceanWave3D: deltaT = 0.00952381 s.

oceanWave3D: Time = 2.10476 s.
oceanWave3D: deltaT = 0.00952381 s.

oceanWave3D: Time = 2.11429 s.
oceanWave3D: deltaT = 0.00952381 s.

oceanWave3D: Time = 2.12381 s.
oceanWave3D: deltaT = 0.00952381 s.

oceanWave3D: Time = 2.13333 s.
oceanWave3D: deltaT = 0.00952381 s.

oceanWave3D: Time = 2.14286 s.
oceanWave3D: deltaT = 0.00952381 s.

oceanWave3D: Time = 2.15238 s.
oceanWave3D: deltaT = 0.00952381 s.

oceanWave3D: Time = 2.1619 s.
oceanWave3D: deltaT = 0.00952381 s.

oceanWave3D: Time = 2.17143 s.
oceanWave3D: deltaT = 0.00952381 s.

oceanWave3D: Time = 2.18095 s.
oceanWave3D: deltaT = 0.00952381 s.

oceanWave3D: Time = 2.19048 s.
oceanWave3D: deltaT = 0.00952381 s.

oceanWave3D: Time = 2.2 s.
oceanWave3D: deltaT = 0.00952381 s.

oceanWave3D: Time = 2.20952 s.
oceanWave3D: deltaT = 0.00952381 s.

oceanWave3D: Time = 2.21905 s.
oceanWave3D: deltaT = 0.00952381 s.

oceanWave3D: Time = 2.22857 s.
oceanWave3D: deltaT = 0.00952381 s.

oceanWave3D: Time = 2.2381 s.
oceanWave3D: deltaT = 0.00952381 s.

oceanWave3D: Time = 2.24762 s.
oceanWave3D: deltaT = 0.00952381 s.

oceanWave3D: Time = 2.25714 s.
oceanWave3D: deltaT = 0.00952381 s.

oceanWave3D: Time = 2.26667 s.
oceanWave3D: deltaT = 0.00952381 s.

oceanWave3D: Time = 2.27619 s.
oceanWave3D: deltaT = 0.00952381 s.

oceanWave3D: Time = 2.28571 s.
oceanWave3D: deltaT = 0.00952381 s.

oceanWave3D: Time = 2.29524 s.
oceanWave3D: deltaT = 0.00952381 s.

oceanWave3D: Time = 2.30476 s.
oceanWave3D: deltaT = 0.00952381 s.

oceanWave3D: Time = 2.31429 s.
oceanWave3D: deltaT = 0.00952381 s.

oceanWave3D: Time = 2.32381 s.
oceanWave3D: deltaT = 0.00952381 s.

oceanWave3D: Time = 2.33333 s.
oceanWave3D: deltaT = 0.00952381 s.

oceanWave3D: Time = 2.34286 s.
oceanWave3D: deltaT = 0.00952381 s.

oceanWave3D: Time = 2.35238 s.
oceanWave3D: deltaT = 0.00952381 s.

oceanWave3D: Time = 2.3619 s.
oceanWave3D: deltaT = 0.00952381 s.

oceanWave3D: Time = 2.37143 s.
oceanWave3D: deltaT = 0.00952381 s.

oceanWave3D: Time = 2.38095 s.
oceanWave3D: deltaT = 0.00952381 s.

oceanWave3D: Time = 2.39048 s.
oceanWave3D: deltaT = 0.00952381 s.

oceanWave3D: Time = 2.4 s.
oceanWave3D: deltaT = 0.00952381 s.

oceanWave3D: Time = 2.41 s.
oceanWave3D: deltaT = 0.01 s.

oceanWave3D: Time = 2.42 s.
oceanWave3D: deltaT = 0.01 s.

oceanWave3D: Time = 2.42947 s.
oceanWave3D: deltaT = 0.00947368 s.

oceanWave3D: Time = 2.43895 s.
oceanWave3D: deltaT = 0.00947368 s.

oceanWave3D: Time = 2.44842 s.
oceanWave3D: deltaT = 0.00947368 s.

oceanWave3D: Time = 2.45789 s.
oceanWave3D: deltaT = 0.00947368 s.

oceanWave3D: Time = 2.46737 s.
oceanWave3D: deltaT = 0.00947368 s.

oceanWave3D: Time = 2.47684 s.
oceanWave3D: deltaT = 0.00947368 s.

oceanWave3D: Time = 2.48632 s.
oceanWave3D: deltaT = 0.00947368 s.

oceanWave3D: Time = 2.49579 s.
oceanWave3D: deltaT = 0.00947368 s.

oceanWave3D: Time = 2.50526 s.
oceanWave3D: deltaT = 0.00947368 s.

oceanWave3D: Time = 2.51474 s.
oceanWave3D: deltaT = 0.00947368 s.

oceanWave3D: Time = 2.52421 s.
oceanWave3D: deltaT = 0.00947368 s.

oceanWave3D: Time = 2.53368 s.
oceanWave3D: deltaT = 0.00947368 s.

oceanWave3D: Time = 2.54316 s.
oceanWave3D: deltaT = 0.00947368 s.

oceanWave3D: Time = 2.55263 s.
oceanWave3D: deltaT = 0.00947368 s.

oceanWave3D: Time = 2.56211 s.
oceanWave3D: deltaT = 0.00947368 s.

oceanWave3D: Time = 2.57158 s.
oceanWave3D: deltaT = 0.00947368 s.

oceanWave3D: Time = 2.58105 s.
oceanWave3D: deltaT = 0.00947368 s.

oceanWave3D: Time = 2.59053 s.
oceanWave3D: deltaT = 0.00947368 s.

oceanWave3D: Time = 2.6 s.
oceanWave3D: deltaT = 0.00947368 s.

oceanWave3D: Time = 2.60952 s.
oceanWave3D: deltaT = 0.00952381 s.

oceanWave3D: Time = 2.61905 s.
oceanWave3D: deltaT = 0.00952381 s.

oceanWave3D: Time = 2.62857 s.
oceanWave3D: deltaT = 0.00952381 s.

oceanWave3D: Time = 2.6381 s.
oceanWave3D: deltaT = 0.00952381 s.

oceanWave3D: Time = 2.64762 s.
oceanWave3D: deltaT = 0.00952381 s.

oceanWave3D: Time = 2.65714 s.
oceanWave3D: deltaT = 0.00952381 s.

oceanWave3D: Time = 2.66667 s.
oceanWave3D: deltaT = 0.00952381 s.

oceanWave3D: Time = 2.67619 s.
oceanWave3D: deltaT = 0.00952381 s.

oceanWave3D: Time = 2.68571 s.
oceanWave3D: deltaT = 0.00952381 s.

oceanWave3D: Time = 2.69524 s.
oceanWave3D: deltaT = 0.00952381 s.

oceanWave3D: Time = 2.70476 s.
oceanWave3D: deltaT = 0.00952381 s.

oceanWave3D: Time = 2.71429 s.
oceanWave3D: deltaT = 0.00952381 s.

oceanWave3D: Time = 2.72381 s.
oceanWave3D: deltaT = 0.00952381 s.

oceanWave3D: Time = 2.73333 s.
oceanWave3D: deltaT = 0.00952381 s.

oceanWave3D: Time = 2.74286 s.
oceanWave3D: deltaT = 0.00952381 s.

oceanWave3D: Time = 2.75238 s.
oceanWave3D: deltaT = 0.00952381 s.

oceanWave3D: Time = 2.7619 s.
oceanWave3D: deltaT = 0.00952381 s.

oceanWave3D: Time = 2.77143 s.
oceanWave3D: deltaT = 0.00952381 s.

oceanWave3D: Time = 2.78095 s.
oceanWave3D: deltaT = 0.00952381 s.

oceanWave3D: Time = 2.79048 s.
oceanWave3D: deltaT = 0.00952381 s.

oceanWave3D: Time = 2.8 s.
oceanWave3D: deltaT = 0.00952381 s.

oceanWave3D: Time = 2.81 s.
oceanWave3D: deltaT = 0.01 s.

oceanWave3D: Time = 2.82 s.
oceanWave3D: deltaT = 0.01 s.

oceanWave3D: Time = 2.82947 s.
oceanWave3D: deltaT = 0.00947368 s.

oceanWave3D: Time = 2.83895 s.
oceanWave3D: deltaT = 0.00947368 s.

oceanWave3D: Time = 2.84842 s.
oceanWave3D: deltaT = 0.00947368 s.

oceanWave3D: Time = 2.85789 s.
oceanWave3D: deltaT = 0.00947368 s.

oceanWave3D: Time = 2.86737 s.
oceanWave3D: deltaT = 0.00947368 s.

oceanWave3D: Time = 2.87684 s.
oceanWave3D: deltaT = 0.00947368 s.

oceanWave3D: Time = 2.88632 s.
oceanWave3D: deltaT = 0.00947368 s.

oceanWave3D: Time = 2.89579 s.
oceanWave3D: deltaT = 0.00947368 s.

oceanWave3D: Time = 2.90526 s.
oceanWave3D: deltaT = 0.00947368 s.

oceanWave3D: Time = 2.91474 s.
oceanWave3D: deltaT = 0.00947368 s.

oceanWave3D: Time = 2.92421 s.
oceanWave3D: deltaT = 0.00947368 s.

oceanWave3D: Time = 2.93368 s.
oceanWave3D: deltaT = 0.00947368 s.

oceanWave3D: Time = 2.94316 s.
oceanWave3D: deltaT = 0.00947368 s.

oceanWave3D: Time = 2.95263 s.
oceanWave3D: deltaT = 0.00947368 s.

oceanWave3D: Time = 2.96211 s.
oceanWave3D: deltaT = 0.00947368 s.

oceanWave3D: Time = 2.97158 s.
oceanWave3D: deltaT = 0.00947368 s.

oceanWave3D: Time = 2.98105 s.
oceanWave3D: deltaT = 0.00947368 s.

oceanWave3D: Time = 2.99053 s.
oceanWave3D: deltaT = 0.00947368 s.

oceanWave3D: Time = 3 s.
oceanWave3D: deltaT = 0.00947368 s.

oceanWave3D: Time = 3.00952 s.
oceanWave3D: deltaT = 0.00952381 s.

oceanWave3D: Time = 3.01905 s.
oceanWave3D: deltaT = 0.00952381 s.

oceanWave3D: Time = 3.02857 s.
oceanWave3D: deltaT = 0.00952381 s.

oceanWave3D: Time = 3.0381 s.
oceanWave3D: deltaT = 0.00952381 s.

oceanWave3D: Time = 3.04762 s.
oceanWave3D: deltaT = 0.00952381 s.

oceanWave3D: Time = 3.05714 s.
oceanWave3D: deltaT = 0.00952381 s.

oceanWave3D: Time = 3.06667 s.
oceanWave3D: deltaT = 0.00952381 s.

oceanWave3D: Time = 3.07619 s.
oceanWave3D: deltaT = 0.00952381 s.

oceanWave3D: Time = 3.08571 s.
oceanWave3D: deltaT = 0.00952381 s.

oceanWave3D: Time = 3.09524 s.
oceanWave3D: deltaT = 0.00952381 s.

oceanWave3D: Time = 3.10476 s.
oceanWave3D: deltaT = 0.00952381 s.

oceanWave3D: Time = 3.11429 s.
oceanWave3D: deltaT = 0.00952381 s.

oceanWave3D: Time = 3.12381 s.
oceanWave3D: deltaT = 0.00952381 s.

oceanWave3D: Time = 3.13333 s.
oceanWave3D: deltaT = 0.00952381 s.

oceanWave3D: Time = 3.14286 s.
oceanWave3D: deltaT = 0.00952381 s.

oceanWave3D: Time = 3.15238 s.
oceanWave3D: deltaT = 0.00952381 s.

oceanWave3D: Time = 3.1619 s.
oceanWave3D: deltaT = 0.00952381 s.

oceanWave3D: Time = 3.17143 s.
oceanWave3D: deltaT = 0.00952381 s.

oceanWave3D: Time = 3.18095 s.
oceanWave3D: deltaT = 0.00952381 s.

oceanWave3D: Time = 3.19048 s.
oceanWave3D: deltaT = 0.00952381 s.

oceanWave3D: Time = 3.2 s.
oceanWave3D: deltaT = 0.00952381 s.

oceanWave3D: Time = 3.20952 s.
oceanWave3D: deltaT = 0.00952381 s.

oceanWave3D: Time = 3.21905 s.
oceanWave3D: deltaT = 0.00952381 s.

oceanWave3D: Time = 3.22857 s.
oceanWave3D: deltaT = 0.00952381 s.

oceanWave3D: Time = 3.2381 s.
oceanWave3D: deltaT = 0.00952381 s.

oceanWave3D: Time = 3.24762 s.
oceanWave3D: deltaT = 0.00952381 s.

oceanWave3D: Time = 3.25714 s.
oceanWave3D: deltaT = 0.00952381 s.

oceanWave3D: Time = 3.26667 s.
oceanWave3D: deltaT = 0.00952381 s.

oceanWave3D: Time = 3.27619 s.
oceanWave3D: deltaT = 0.00952381 s.

oceanWave3D: Time = 3.28571 s.
oceanWave3D: deltaT = 0.00952381 s.

oceanWave3D: Time = 3.29524 s.
oceanWave3D: deltaT = 0.00952381 s.

oceanWave3D: Time = 3.30476 s.
oceanWave3D: deltaT = 0.00952381 s.

oceanWave3D: Time = 3.31429 s.
oceanWave3D: deltaT = 0.00952381 s.

oceanWave3D: Time = 3.32381 s.
oceanWave3D: deltaT = 0.00952381 s.

oceanWave3D: Time = 3.33333 s.
oceanWave3D: deltaT = 0.00952381 s.

oceanWave3D: Time = 3.34286 s.
oceanWave3D: deltaT = 0.00952381 s.

oceanWave3D: Time = 3.35238 s.
oceanWave3D: deltaT = 0.00952381 s.

oceanWave3D: Time = 3.3619 s.
oceanWave3D: deltaT = 0.00952381 s.

oceanWave3D: Time = 3.37143 s.
oceanWave3D: deltaT = 0.00952381 s.

oceanWave3D: Time = 3.38095 s.
oceanWave3D: deltaT = 0.00952381 s.

oceanWave3D: Time = 3.39048 s.
oceanWave3D: deltaT = 0.00952381 s.

oceanWave3D: Time = 3.4 s.
oceanWave3D: deltaT = 0.00952381 s.

oceanWave3D: Time = 3.41 s.
oceanWave3D: deltaT = 0.01 s.

oceanWave3D: Time = 3.42 s.
oceanWave3D: deltaT = 0.01 s.

oceanWave3D: Time = 3.42947 s.
oceanWave3D: deltaT = 0.00947368 s.

oceanWave3D: Time = 3.43895 s.
oceanWave3D: deltaT = 0.00947368 s.

oceanWave3D: Time = 3.44842 s.
oceanWave3D: deltaT = 0.00947368 s.

oceanWave3D: Time = 3.45789 s.
oceanWave3D: deltaT = 0.00947368 s.

oceanWave3D: Time = 3.46737 s.
oceanWave3D: deltaT = 0.00947368 s.

oceanWave3D: Time = 3.47684 s.
oceanWave3D: deltaT = 0.00947368 s.

oceanWave3D: Time = 3.48632 s.
oceanWave3D: deltaT = 0.00947368 s.

oceanWave3D: Time = 3.49579 s.
oceanWave3D: deltaT = 0.00947368 s.

oceanWave3D: Time = 3.50526 s.
oceanWave3D: deltaT = 0.00947368 s.

oceanWave3D: Time = 3.51474 s.
oceanWave3D: deltaT = 0.00947368 s.

 An average of     7.12 GMRES iterations done per solve.
   Minimum no.        1 and maximum no.       11 iterations per solve
   Loop no.      200   Time =    1.8800 sec.
 time step number          200  t=   1.8900000000000001     
 An average of     7.16 GMRES iterations done per solve.
   Minimum no.        1 and maximum no.       11 iterations per solve
   Loop no.      210   Time =    1.9800 sec.
 time step number          210  t=   1.9900000000000002     
 An average of     7.22 GMRES iterations done per solve.
   Minimum no.        1 and maximum no.       11 iterations per solve
   Loop no.      220   Time =    2.0762 sec.
 time step number          220  t=   2.0857142857142854     
 An average of     7.28 GMRES iterations done per solve.
   Minimum no.        1 and maximum no.       12 iterations per solve
   Loop no.      230   Time =    2.1714 sec.
 time step number          230  t=   2.1809523809523808     
 An average of     7.36 GMRES iterations done per solve.
   Minimum no.        1 and maximum no.       12 iterations per solve
   Loop no.      240   Time =    2.2667 sec.
 time step number          240  t=   2.2761904761904761     
 An average of     7.43 GMRES iterations done per solve.
   Minimum no.        1 and maximum no.       12 iterations per solve
   Loop no.      250   Time =    2.3619 sec.
 time step number          250  t=   2.3714285714285710     
 An average of     7.49 GMRES iterations done per solve.
   Minimum no.        1 and maximum no.       12 iterations per solve
   Loop no.      260   Time =    2.4579 sec.
 time step number          260  t=   2.4673684210526314     
 An average of     7.52 GMRES iterations done per solve.
   Minimum no.        1 and maximum no.       12 iterations per solve
   Loop no.      270   Time =    2.5526 sec.
 time step number          270  t=   2.5621052631578944     
 An average of     7.54 GMRES iterations done per solve.
   Minimum no.        1 and maximum no.       12 iterations per solve
   Loop no.      280   Time =    2.6476 sec.
 time step number          280  t=   2.6571428571428570     
 An average of     7.57 GMRES iterations done per solve.
   Minimum no.        1 and maximum no.       12 iterations per solve
   Loop no.      290   Time =    2.7429 sec.
 time step number          290  t=   2.7523809523809519     
 An average of     7.61 GMRES iterations done per solve.
   Minimum no.        1 and maximum no.       12 iterations per solve
   Loop no.      300   Time =    2.8389 sec.
 time step number          300  t=   2.8484210526315787     
 An average of     7.65 GMRES iterations done per solve.
   Minimum no.        1 and maximum no.       12 iterations per solve
   Loop no.      310   Time =    2.9337 sec.
 time step number          310  t=   2.9431578947368418     
 An average of     7.70 GMRES iterations done per solve.
   Minimum no.        1 and maximum no.       12 iterations per solve
   Loop no.      320   Time =    3.0286 sec.
 time step number          320  t=   3.0380952380952380     
 An average of     7.75 GMRES iterations done per solve.
   Minimum no.        1 and maximum no.       12 iterations per solve
   Loop no.      330   Time =    3.1238 sec.
 time step number          330  t=   3.1333333333333329     
 An average of     7.80 GMRES iterations done per solve.
   Minimum no.        1 and maximum no.       12 iterations per solve
   Loop no.      340   Time =    3.2190 sec.
 time step number          340  t=   3.2285714285714286     
 An average of     7.84 GMRES iterations done per solve.
   Minimum no.        1 and maximum no.       12 iterations per solve
   Loop no.      350   Time =    3.3143 sec.
 time step number          350  t=   3.3238095238095235     
 An average of     7.88 GMRES iterations done per solve.
   Minimum no.        1 and maximum no.       12 iterations per solve
   Loop no.      360   Time =    3.4100 sec.
 time step number          360  t=   3.4199999999999999     
 An average of     7.91 GMRES iterations done per solve.
   Minimum no.        1 and maximum no.       12 iterations per solve
   Loop no.      370   Time =    3.5053 sec.
oceanWave3D: Time = 3.52421 s.
oceanWave3D: deltaT = 0.00947368 s.

oceanWave3D: Time = 3.53368 s.
oceanWave3D: deltaT = 0.00947368 s.

oceanWave3D: Time = 3.54316 s.
oceanWave3D: deltaT = 0.00947368 s.

oceanWave3D: Time = 3.55263 s.
oceanWave3D: deltaT = 0.00947368 s.

oceanWave3D: Time = 3.56211 s.
oceanWave3D: deltaT = 0.00947368 s.

oceanWave3D: Time = 3.57158 s.
oceanWave3D: deltaT = 0.00947368 s.

oceanWave3D: Time = 3.58105 s.
oceanWave3D: deltaT = 0.00947368 s.

oceanWave3D: Time = 3.59053 s.
oceanWave3D: deltaT = 0.00947368 s.

oceanWave3D: Time = 3.6 s.
oceanWave3D: deltaT = 0.00947368 s.

oceanWave3D: Time = 3.60952 s.
oceanWave3D: deltaT = 0.00952381 s.

oceanWave3D: Time = 3.61905 s.
oceanWave3D: deltaT = 0.00952381 s.

oceanWave3D: Time = 3.62857 s.
oceanWave3D: deltaT = 0.00952381 s.

oceanWave3D: Time = 3.6381 s.
oceanWave3D: deltaT = 0.00952381 s.

oceanWave3D: Time = 3.64762 s.
oceanWave3D: deltaT = 0.00952381 s.

oceanWave3D: Time = 3.65714 s.
oceanWave3D: deltaT = 0.00952381 s.

oceanWave3D: Time = 3.66667 s.
oceanWave3D: deltaT = 0.00952381 s.

oceanWave3D: Time = 3.67619 s.
oceanWave3D: deltaT = 0.00952381 s.

oceanWave3D: Time = 3.68571 s.
oceanWave3D: deltaT = 0.00952381 s.

oceanWave3D: Time = 3.69524 s.
oceanWave3D: deltaT = 0.00952381 s.

oceanWave3D: Time = 3.70476 s.
oceanWave3D: deltaT = 0.00952381 s.

oceanWave3D: Time = 3.71429 s.
oceanWave3D: deltaT = 0.00952381 s.

oceanWave3D: Time = 3.72381 s.
oceanWave3D: deltaT = 0.00952381 s.

oceanWave3D: Time = 3.73333 s.
oceanWave3D: deltaT = 0.00952381 s.

oceanWave3D: Time = 3.74286 s.
oceanWave3D: deltaT = 0.00952381 s.

oceanWave3D: Time = 3.75238 s.
oceanWave3D: deltaT = 0.00952381 s.

oceanWave3D: Time = 3.7619 s.
oceanWave3D: deltaT = 0.00952381 s.

oceanWave3D: Time = 3.77143 s.
oceanWave3D: deltaT = 0.00952381 s.

oceanWave3D: Time = 3.78095 s.
oceanWave3D: deltaT = 0.00952381 s.

oceanWave3D: Time = 3.79048 s.
oceanWave3D: deltaT = 0.00952381 s.

oceanWave3D: Time = 3.8 s.
oceanWave3D: deltaT = 0.00952381 s.

oceanWave3D: Time = 3.81 s.
oceanWave3D: deltaT = 0.01 s.

oceanWave3D: Time = 3.82 s.
oceanWave3D: deltaT = 0.01 s.

oceanWave3D: Time = 3.82947 s.
oceanWave3D: deltaT = 0.00947368 s.

oceanWave3D: Time = 3.83895 s.
oceanWave3D: deltaT = 0.00947368 s.

oceanWave3D: Time = 3.84842 s.
oceanWave3D: deltaT = 0.00947368 s.

oceanWave3D: Time = 3.85789 s.
oceanWave3D: deltaT = 0.00947368 s.

oceanWave3D: Time = 3.86737 s.
oceanWave3D: deltaT = 0.00947368 s.

oceanWave3D: Time = 3.87684 s.
oceanWave3D: deltaT = 0.00947368 s.

oceanWave3D: Time = 3.88632 s.
oceanWave3D: deltaT = 0.00947368 s.

oceanWave3D: Time = 3.89579 s.
oceanWave3D: deltaT = 0.00947368 s.

oceanWave3D: Time = 3.90526 s.
oceanWave3D: deltaT = 0.00947368 s.

oceanWave3D: Time = 3.91474 s.
oceanWave3D: deltaT = 0.00947368 s.

oceanWave3D: Time = 3.92421 s.
oceanWave3D: deltaT = 0.00947368 s.

oceanWave3D: Time = 3.93368 s.
oceanWave3D: deltaT = 0.00947368 s.

oceanWave3D: Time = 3.94316 s.
oceanWave3D: deltaT = 0.00947368 s.

oceanWave3D: Time = 3.95263 s.
oceanWave3D: deltaT = 0.00947368 s.

oceanWave3D: Time = 3.96211 s.
oceanWave3D: deltaT = 0.00947368 s.

oceanWave3D: Time = 3.97158 s.
oceanWave3D: deltaT = 0.00947368 s.

oceanWave3D: Time = 3.98105 s.
oceanWave3D: deltaT = 0.00947368 s.

oceanWave3D: Time = 3.99053 s.
oceanWave3D: deltaT = 0.00947368 s.

oceanWave3D: Time = 4 s.
oceanWave3D: deltaT = 0.00947368 s.

oceanWave3D: Time = 4.00952 s.
oceanWave3D: deltaT = 0.00952381 s.

oceanWave3D: Time = 4.01905 s.
oceanWave3D: deltaT = 0.00952381 s.

oceanWave3D: Time = 4.02857 s.
oceanWave3D: deltaT = 0.00952381 s.

oceanWave3D: Time = 4.0381 s.
oceanWave3D: deltaT = 0.00952381 s.

oceanWave3D: Time = 4.04762 s.
oceanWave3D: deltaT = 0.00952381 s.

oceanWave3D: Time = 4.05714 s.
oceanWave3D: deltaT = 0.00952381 s.

oceanWave3D: Time = 4.06667 s.
oceanWave3D: deltaT = 0.00952381 s.

oceanWave3D: Time = 4.07619 s.
oceanWave3D: deltaT = 0.00952381 s.

oceanWave3D: Time = 4.08571 s.
oceanWave3D: deltaT = 0.00952381 s.

oceanWave3D: Time = 4.09524 s.
oceanWave3D: deltaT = 0.00952381 s.

oceanWave3D: Time = 4.10476 s.
oceanWave3D: deltaT = 0.00952381 s.

oceanWave3D: Time = 4.11429 s.
oceanWave3D: deltaT = 0.00952381 s.

oceanWave3D: Time = 4.12381 s.
oceanWave3D: deltaT = 0.00952381 s.

oceanWave3D: Time = 4.13333 s.
oceanWave3D: deltaT = 0.00952381 s.

oceanWave3D: Time = 4.14286 s.
oceanWave3D: deltaT = 0.00952381 s.

oceanWave3D: Time = 4.15238 s.
oceanWave3D: deltaT = 0.00952381 s.

oceanWave3D: Time = 4.1619 s.
oceanWave3D: deltaT = 0.00952381 s.

oceanWave3D: Time = 4.17143 s.
oceanWave3D: deltaT = 0.00952381 s.

oceanWave3D: Time = 4.18095 s.
oceanWave3D: deltaT = 0.00952381 s.

oceanWave3D: Time = 4.19048 s.
oceanWave3D: deltaT = 0.00952381 s.

oceanWave3D: Time = 4.2 s.
oceanWave3D: deltaT = 0.00952381 s.

oceanWave3D: Time = 4.20952 s.
oceanWave3D: deltaT = 0.00952381 s.

oceanWave3D: Time = 4.21905 s.
oceanWave3D: deltaT = 0.00952381 s.

oceanWave3D: Time = 4.22857 s.
oceanWave3D: deltaT = 0.00952381 s.

oceanWave3D: Time = 4.2381 s.
oceanWave3D: deltaT = 0.00952381 s.

oceanWave3D: Time = 4.24762 s.
oceanWave3D: deltaT = 0.00952381 s.

oceanWave3D: Time = 4.25714 s.
oceanWave3D: deltaT = 0.00952381 s.

oceanWave3D: Time = 4.26667 s.
oceanWave3D: deltaT = 0.00952381 s.

oceanWave3D: Time = 4.27619 s.
oceanWave3D: deltaT = 0.00952381 s.

oceanWave3D: Time = 4.28571 s.
oceanWave3D: deltaT = 0.00952381 s.

oceanWave3D: Time = 4.29524 s.
oceanWave3D: deltaT = 0.00952381 s.

oceanWave3D: Time = 4.30476 s.
oceanWave3D: deltaT = 0.00952381 s.

oceanWave3D: Time = 4.31429 s.
oceanWave3D: deltaT = 0.00952381 s.

oceanWave3D: Time = 4.32381 s.
oceanWave3D: deltaT = 0.00952381 s.

oceanWave3D: Time = 4.33333 s.
oceanWave3D: deltaT = 0.00952381 s.

oceanWave3D: Time = 4.34286 s.
oceanWave3D: deltaT = 0.00952381 s.

oceanWave3D: Time = 4.35238 s.
oceanWave3D: deltaT = 0.00952381 s.

oceanWave3D: Time = 4.3619 s.
oceanWave3D: deltaT = 0.00952381 s.

oceanWave3D: Time = 4.37143 s.
oceanWave3D: deltaT = 0.00952381 s.

oceanWave3D: Time = 4.38095 s.
oceanWave3D: deltaT = 0.00952381 s.

oceanWave3D: Time = 4.39048 s.
oceanWave3D: deltaT = 0.00952381 s.

oceanWave3D: Time = 4.4 s.
oceanWave3D: deltaT = 0.00952381 s.

oceanWave3D: Time = 4.40952 s.
oceanWave3D: deltaT = 0.00952381 s.

oceanWave3D: Time = 4.41905 s.
oceanWave3D: deltaT = 0.00952381 s.

oceanWave3D: Time = 4.42857 s.
oceanWave3D: deltaT = 0.00952381 s.

oceanWave3D: Time = 4.4381 s.
oceanWave3D: deltaT = 0.00952381 s.

oceanWave3D: Time = 4.44762 s.
oceanWave3D: deltaT = 0.00952381 s.

oceanWave3D: Time = 4.45714 s.
oceanWave3D: deltaT = 0.00952381 s.

oceanWave3D: Time = 4.46667 s.
oceanWave3D: deltaT = 0.00952381 s.

oceanWave3D: Time = 4.47619 s.
oceanWave3D: deltaT = 0.00952381 s.

oceanWave3D: Time = 4.48571 s.
oceanWave3D: deltaT = 0.00952381 s.

oceanWave3D: Time = 4.49524 s.
oceanWave3D: deltaT = 0.00952381 s.

oceanWave3D: Time = 4.50476 s.
oceanWave3D: deltaT = 0.00952381 s.

oceanWave3D: Time = 4.51429 s.
oceanWave3D: deltaT = 0.00952381 s.

oceanWave3D: Time = 4.52381 s.
oceanWave3D: deltaT = 0.00952381 s.

oceanWave3D: Time = 4.53333 s.
oceanWave3D: deltaT = 0.00952381 s.

oceanWave3D: Time = 4.54286 s.
oceanWave3D: deltaT = 0.00952381 s.

oceanWave3D: Time = 4.55238 s.
oceanWave3D: deltaT = 0.00952381 s.

oceanWave3D: Time = 4.5619 s.
oceanWave3D: deltaT = 0.00952381 s.

oceanWave3D: Time = 4.57143 s.
oceanWave3D: deltaT = 0.00952381 s.

oceanWave3D: Time = 4.58095 s.
oceanWave3D: deltaT = 0.00952381 s.

oceanWave3D: Time = 4.59048 s.
oceanWave3D: deltaT = 0.00952381 s.

oceanWave3D: Time = 4.6 s.
oceanWave3D: deltaT = 0.00952381 s.

oceanWave3D: Time = 4.60952 s.
oceanWave3D: deltaT = 0.00952381 s.

oceanWave3D: Time = 4.61905 s.
oceanWave3D: deltaT = 0.00952381 s.

oceanWave3D: Time = 4.62857 s.
oceanWave3D: deltaT = 0.00952381 s.

oceanWave3D: Time = 4.6381 s.
oceanWave3D: deltaT = 0.00952381 s.

oceanWave3D: Time = 4.64762 s.
oceanWave3D: deltaT = 0.00952381 s.

oceanWave3D: Time = 4.65714 s.
oceanWave3D: deltaT = 0.00952381 s.

oceanWave3D: Time = 4.66667 s.
oceanWave3D: deltaT = 0.00952381 s.

oceanWave3D: Time = 4.67619 s.
oceanWave3D: deltaT = 0.00952381 s.

oceanWave3D: Time = 4.68571 s.
oceanWave3D: deltaT = 0.00952381 s.

oceanWave3D: Time = 4.69524 s.
oceanWave3D: deltaT = 0.00952381 s.

oceanWave3D: Time = 4.70476 s.
oceanWave3D: deltaT = 0.00952381 s.

oceanWave3D: Time = 4.71429 s.
oceanWave3D: deltaT = 0.00952381 s.

oceanWave3D: Time = 4.72381 s.
oceanWave3D: deltaT = 0.00952381 s.

oceanWave3D: Time = 4.73333 s.
oceanWave3D: deltaT = 0.00952381 s.

oceanWave3D: Time = 4.74286 s.
oceanWave3D: deltaT = 0.00952381 s.

oceanWave3D: Time = 4.75238 s.
oceanWave3D: deltaT = 0.00952381 s.

oceanWave3D: Time = 4.7619 s.
oceanWave3D: deltaT = 0.00952381 s.

oceanWave3D: Time = 4.77143 s.
oceanWave3D: deltaT = 0.00952381 s.

oceanWave3D: Time = 4.78095 s.
oceanWave3D: deltaT = 0.00952381 s.

oceanWave3D: Time = 4.79048 s.
oceanWave3D: deltaT = 0.00952381 s.

oceanWave3D: Time = 4.8 s.
oceanWave3D: deltaT = 0.00952381 s.

oceanWave3D: Time = 4.81 s.
oceanWave3D: deltaT = 0.01 s.

oceanWave3D: Time = 4.82 s.
oceanWave3D: deltaT = 0.01 s.

oceanWave3D: Time = 4.83 s.
oceanWave3D: deltaT = 0.01 s.

oceanWave3D: Time = 4.84 s.
oceanWave3D: deltaT = 0.01 s.

oceanWave3D: Time = 4.84941 s.
oceanWave3D: deltaT = 0.00941176 s.

oceanWave3D: Time = 4.85882 s.
oceanWave3D: deltaT = 0.00941176 s.

oceanWave3D: Time = 4.86824 s.
oceanWave3D: deltaT = 0.00941176 s.

oceanWave3D: Time = 4.87765 s.
oceanWave3D: deltaT = 0.00941176 s.

oceanWave3D: Time = 4.88706 s.
oceanWave3D: deltaT = 0.00941176 s.

oceanWave3D: Time = 4.89647 s.
oceanWave3D: deltaT = 0.00941176 s.

oceanWave3D: Time = 4.90588 s.
oceanWave3D: deltaT = 0.00941176 s.

oceanWave3D: Time = 4.91529 s.
oceanWave3D: deltaT = 0.00941176 s.

oceanWave3D: Time = 4.92471 s.
oceanWave3D: deltaT = 0.00941176 s.

oceanWave3D: Time = 4.93412 s.
oceanWave3D: deltaT = 0.00941176 s.

oceanWave3D: Time = 4.94353 s.
oceanWave3D: deltaT = 0.00941176 s.

oceanWave3D: Time = 4.95294 s.
oceanWave3D: deltaT = 0.00941176 s.

oceanWave3D: Time = 4.96235 s.
oceanWave3D: deltaT = 0.00941176 s.

oceanWave3D: Time = 4.97176 s.
oceanWave3D: deltaT = 0.00941176 s.

oceanWave3D: Time = 4.98118 s.
oceanWave3D: deltaT = 0.00941176 s.

oceanWave3D: Time = 4.99059 s.
oceanWave3D: deltaT = 0.00941176 s.

oceanWave3D: Time = 5 s.
oceanWave3D: deltaT = 0.00941176 s.

oceanWave3D: Time = 5.00952 s.
oceanWave3D: deltaT = 0.00952381 s.

oceanWave3D: Time = 5.01905 s.
oceanWave3D: deltaT = 0.00952381 s.

oceanWave3D: Time = 5.02857 s.
oceanWave3D: deltaT = 0.00952381 s.

oceanWave3D: Time = 5.0381 s.
oceanWave3D: deltaT = 0.00952381 s.

oceanWave3D: Time = 5.04762 s.
oceanWave3D: deltaT = 0.00952381 s.

oceanWave3D: Time = 5.05714 s.
oceanWave3D: deltaT = 0.00952381 s.

oceanWave3D: Time = 5.06667 s.
oceanWave3D: deltaT = 0.00952381 s.

oceanWave3D: Time = 5.07619 s.
oceanWave3D: deltaT = 0.00952381 s.

oceanWave3D: Time = 5.08571 s.
oceanWave3D: deltaT = 0.00952381 s.

oceanWave3D: Time = 5.09524 s.
oceanWave3D: deltaT = 0.00952381 s.

oceanWave3D: Time = 5.10476 s.
oceanWave3D: deltaT = 0.00952381 s.

oceanWave3D: Time = 5.11429 s.
oceanWave3D: deltaT = 0.00952381 s.

oceanWave3D: Time = 5.12381 s.
oceanWave3D: deltaT = 0.00952381 s.

oceanWave3D: Time = 5.13333 s.
oceanWave3D: deltaT = 0.00952381 s.

 time step number          370  t=   3.5147368421052629     
 An average of     7.94 GMRES iterations done per solve.
   Minimum no.        1 and maximum no.       12 iterations per solve
   Loop no.      380   Time =    3.6000 sec.
 time step number          380  t=   3.6095238095238096     
 An average of     7.97 GMRES iterations done per solve.
   Minimum no.        1 and maximum no.       13 iterations per solve
   Loop no.      390   Time =    3.6952 sec.
 time step number          390  t=   3.7047619047619045     
 An average of     8.00 GMRES iterations done per solve.
   Minimum no.        1 and maximum no.       13 iterations per solve
   Loop no.      400   Time =    3.7905 sec.
 time step number          400  t=   3.8000000000000003     
 An average of     8.03 GMRES iterations done per solve.
   Minimum no.        1 and maximum no.       13 iterations per solve
   Loop no.      410   Time =    3.8863 sec.
 time step number          410  t=   3.8957894736842102     
 An average of     8.05 GMRES iterations done per solve.
   Minimum no.        1 and maximum no.       13 iterations per solve
   Loop no.      420   Time =    3.9811 sec.
 time step number          420  t=   3.9905263157894737     
 An average of     8.10 GMRES iterations done per solve.
   Minimum no.        1 and maximum no.       13 iterations per solve
   Loop no.      430   Time =    4.0762 sec.
 time step number          430  t=   4.0857142857142854     
 An average of     8.16 GMRES iterations done per solve.
   Minimum no.        1 and maximum no.       14 iterations per solve
   Loop no.      440   Time =    4.1714 sec.
 time step number          440  t=   4.1809523809523803     
 An average of     8.22 GMRES iterations done per solve.
   Minimum no.        1 and maximum no.       14 iterations per solve
   Loop no.      450   Time =    4.2667 sec.
 time step number          450  t=   4.2761904761904761     
 An average of     8.28 GMRES iterations done per solve.
   Minimum no.        1 and maximum no.       14 iterations per solve
   Loop no.      460   Time =    4.3619 sec.
 time step number          460  t=   4.3714285714285710     
 An average of     8.32 GMRES iterations done per solve.
   Minimum no.        1 and maximum no.       14 iterations per solve
   Loop no.      470   Time =    4.4571 sec.
 time step number          470  t=   4.4666666666666668     
 An average of     8.35 GMRES iterations done per solve.
   Minimum no.        1 and maximum no.       14 iterations per solve
   Loop no.      480   Time =    4.5524 sec.
 time step number          480  t=   4.5619047619047617     
 An average of     8.38 GMRES iterations done per solve.
   Minimum no.        1 and maximum no.       14 iterations per solve
   Loop no.      490   Time =    4.6476 sec.
 time step number          490  t=   4.6571428571428575     
 An average of     8.41 GMRES iterations done per solve.
   Minimum no.        1 and maximum no.       14 iterations per solve
   Loop no.      500   Time =    4.7429 sec.
 time step number          500  t=   4.7523809523809524     
 An average of     8.44 GMRES iterations done per solve.
   Minimum no.        1 and maximum no.       14 iterations per solve
   Loop no.      510   Time =    4.8400 sec.
 time step number          510  t=   4.8494117647058825     
 An average of     8.47 GMRES iterations done per solve.
   Minimum no.        1 and maximum no.       14 iterations per solve
   Loop no.      520   Time =    4.9341 sec.
 time step number          520  t=   4.9435294117647066     
 An average of     8.51 GMRES iterations done per solve.
   Minimum no.        1 and maximum no.       14 iterations per solve
   Loop no.      530   Time =    5.0286 sec.
 time step number          530  t=   5.0380952380952380     
 An average of     8.54 GMRES iterations done per solve.
   Minimum no.        1 and maximum no.       14 iterations per solve
   Loop no.      540   Time =    5.1238 sec.
 time step number          540  t=   5.1333333333333329     
 An average of     8.58 GMRES iterations done per solve.
   Minimum no.        1 and maximum no.       14 iterations per solve
oceanWave3D: Time = 5.14286 s.
oceanWave3D: deltaT = 0.00952381 s.

oceanWave3D: Time = 5.15238 s.
oceanWave3D: deltaT = 0.00952381 s.

oceanWave3D: Time = 5.1619 s.
oceanWave3D: deltaT = 0.00952381 s.

oceanWave3D: Time = 5.17143 s.
oceanWave3D: deltaT = 0.00952381 s.

oceanWave3D: Time = 5.18095 s.
oceanWave3D: deltaT = 0.00952381 s.

oceanWave3D: Time = 5.19048 s.
oceanWave3D: deltaT = 0.00952381 s.

oceanWave3D: Time = 5.2 s.
oceanWave3D: deltaT = 0.00952381 s.

oceanWave3D: Time = 5.20952 s.
oceanWave3D: deltaT = 0.00952381 s.

oceanWave3D: Time = 5.21905 s.
oceanWave3D: deltaT = 0.00952381 s.

oceanWave3D: Time = 5.22857 s.
oceanWave3D: deltaT = 0.00952381 s.

oceanWave3D: Time = 5.2381 s.
oceanWave3D: deltaT = 0.00952381 s.

oceanWave3D: Time = 5.24762 s.
oceanWave3D: deltaT = 0.00952381 s.

oceanWave3D: Time = 5.25714 s.
oceanWave3D: deltaT = 0.00952381 s.

oceanWave3D: Time = 5.26667 s.
oceanWave3D: deltaT = 0.00952381 s.

oceanWave3D: Time = 5.27619 s.
oceanWave3D: deltaT = 0.00952381 s.

oceanWave3D: Time = 5.28571 s.
oceanWave3D: deltaT = 0.00952381 s.

oceanWave3D: Time = 5.29524 s.
oceanWave3D: deltaT = 0.00952381 s.

oceanWave3D: Time = 5.30476 s.
oceanWave3D: deltaT = 0.00952381 s.

oceanWave3D: Time = 5.31429 s.
oceanWave3D: deltaT = 0.00952381 s.

oceanWave3D: Time = 5.32381 s.
oceanWave3D: deltaT = 0.00952381 s.

oceanWave3D: Time = 5.33333 s.
oceanWave3D: deltaT = 0.00952381 s.

oceanWave3D: Time = 5.34286 s.
oceanWave3D: deltaT = 0.00952381 s.

oceanWave3D: Time = 5.35238 s.
oceanWave3D: deltaT = 0.00952381 s.

oceanWave3D: Time = 5.3619 s.
oceanWave3D: deltaT = 0.00952381 s.

oceanWave3D: Time = 5.37143 s.
oceanWave3D: deltaT = 0.00952381 s.

oceanWave3D: Time = 5.38095 s.
oceanWave3D: deltaT = 0.00952381 s.

oceanWave3D: Time = 5.39048 s.
oceanWave3D: deltaT = 0.00952381 s.

oceanWave3D: Time = 5.4 s.
oceanWave3D: deltaT = 0.00952381 s.

oceanWave3D: Time = 5.40952 s.
oceanWave3D: deltaT = 0.00952381 s.

oceanWave3D: Time = 5.41905 s.
oceanWave3D: deltaT = 0.00952381 s.

oceanWave3D: Time = 5.42857 s.
oceanWave3D: deltaT = 0.00952381 s.

oceanWave3D: Time = 5.4381 s.
oceanWave3D: deltaT = 0.00952381 s.

oceanWave3D: Time = 5.44762 s.
oceanWave3D: deltaT = 0.00952381 s.

oceanWave3D: Time = 5.45714 s.
oceanWave3D: deltaT = 0.00952381 s.

oceanWave3D: Time = 5.46667 s.
oceanWave3D: deltaT = 0.00952381 s.

oceanWave3D: Time = 5.47619 s.
oceanWave3D: deltaT = 0.00952381 s.

oceanWave3D: Time = 5.48571 s.
oceanWave3D: deltaT = 0.00952381 s.

oceanWave3D: Time = 5.49524 s.
oceanWave3D: deltaT = 0.00952381 s.

oceanWave3D: Time = 5.50476 s.
oceanWave3D: deltaT = 0.00952381 s.

oceanWave3D: Time = 5.51429 s.
oceanWave3D: deltaT = 0.00952381 s.

oceanWave3D: Time = 5.52381 s.
oceanWave3D: deltaT = 0.00952381 s.

oceanWave3D: Time = 5.53333 s.
oceanWave3D: deltaT = 0.00952381 s.

oceanWave3D: Time = 5.54286 s.
oceanWave3D: deltaT = 0.00952381 s.

oceanWave3D: Time = 5.55238 s.
oceanWave3D: deltaT = 0.00952381 s.

oceanWave3D: Time = 5.5619 s.
oceanWave3D: deltaT = 0.00952381 s.

oceanWave3D: Time = 5.57143 s.
oceanWave3D: deltaT = 0.00952381 s.

oceanWave3D: Time = 5.58095 s.
oceanWave3D: deltaT = 0.00952381 s.

oceanWave3D: Time = 5.59048 s.
oceanWave3D: deltaT = 0.00952381 s.

oceanWave3D: Time = 5.6 s.
oceanWave3D: deltaT = 0.00952381 s.

oceanWave3D: Time = 5.60952 s.
oceanWave3D: deltaT = 0.00952381 s.

oceanWave3D: Time = 5.61905 s.
oceanWave3D: deltaT = 0.00952381 s.

oceanWave3D: Time = 5.62857 s.
oceanWave3D: deltaT = 0.00952381 s.

oceanWave3D: Time = 5.6381 s.
oceanWave3D: deltaT = 0.00952381 s.

oceanWave3D: Time = 5.64762 s.
oceanWave3D: deltaT = 0.00952381 s.

oceanWave3D: Time = 5.65714 s.
oceanWave3D: deltaT = 0.00952381 s.

oceanWave3D: Time = 5.66667 s.
oceanWave3D: deltaT = 0.00952381 s.

oceanWave3D: Time = 5.67619 s.
oceanWave3D: deltaT = 0.00952381 s.

oceanWave3D: Time = 5.68571 s.
oceanWave3D: deltaT = 0.00952381 s.

oceanWave3D: Time = 5.69524 s.
oceanWave3D: deltaT = 0.00952381 s.

oceanWave3D: Time = 5.70476 s.
oceanWave3D: deltaT = 0.00952381 s.

oceanWave3D: Time = 5.71429 s.
oceanWave3D: deltaT = 0.00952381 s.

oceanWave3D: Time = 5.72381 s.
oceanWave3D: deltaT = 0.00952381 s.

oceanWave3D: Time = 5.73333 s.
oceanWave3D: deltaT = 0.00952381 s.

oceanWave3D: Time = 5.74286 s.
oceanWave3D: deltaT = 0.00952381 s.

oceanWave3D: Time = 5.75238 s.
oceanWave3D: deltaT = 0.00952381 s.

oceanWave3D: Time = 5.7619 s.
oceanWave3D: deltaT = 0.00952381 s.

oceanWave3D: Time = 5.77143 s.
oceanWave3D: deltaT = 0.00952381 s.

oceanWave3D: Time = 5.78095 s.
oceanWave3D: deltaT = 0.00952381 s.

oceanWave3D: Time = 5.79048 s.
oceanWave3D: deltaT = 0.00952381 s.

oceanWave3D: Time = 5.8 s.
oceanWave3D: deltaT = 0.00952381 s.

oceanWave3D: Time = 5.81 s.
oceanWave3D: deltaT = 0.01 s.

oceanWave3D: Time = 5.82 s.
oceanWave3D: deltaT = 0.01 s.

oceanWave3D: Time = 5.83 s.
oceanWave3D: deltaT = 0.01 s.

oceanWave3D: Time = 5.84 s.
oceanWave3D: deltaT = 0.01 s.

oceanWave3D: Time = 5.84941 s.
oceanWave3D: deltaT = 0.00941176 s.

oceanWave3D: Time = 5.85882 s.
oceanWave3D: deltaT = 0.00941176 s.

oceanWave3D: Time = 5.86824 s.
oceanWave3D: deltaT = 0.00941176 s.

oceanWave3D: Time = 5.87765 s.
oceanWave3D: deltaT = 0.00941176 s.

oceanWave3D: Time = 5.88706 s.
oceanWave3D: deltaT = 0.00941176 s.

oceanWave3D: Time = 5.89647 s.
oceanWave3D: deltaT = 0.00941176 s.

oceanWave3D: Time = 5.90588 s.
oceanWave3D: deltaT = 0.00941176 s.

oceanWave3D: Time = 5.91529 s.
oceanWave3D: deltaT = 0.00941176 s.

oceanWave3D: Time = 5.92471 s.
oceanWave3D: deltaT = 0.00941176 s.

oceanWave3D: Time = 5.93412 s.
oceanWave3D: deltaT = 0.00941176 s.

oceanWave3D: Time = 5.94353 s.
oceanWave3D: deltaT = 0.00941176 s.

oceanWave3D: Time = 5.95294 s.
oceanWave3D: deltaT = 0.00941176 s.

oceanWave3D: Time = 5.96235 s.
oceanWave3D: deltaT = 0.00941176 s.

oceanWave3D: Time = 5.97176 s.
oceanWave3D: deltaT = 0.00941176 s.

oceanWave3D: Time = 5.98118 s.
oceanWave3D: deltaT = 0.00941176 s.

oceanWave3D: Time = 5.99059 s.
oceanWave3D: deltaT = 0.00941176 s.

oceanWave3D: Time = 6 s.
oceanWave3D: deltaT = 0.00941176 s.

oceanWave3D: Time = 6.00952 s.
oceanWave3D: deltaT = 0.00952381 s.

oceanWave3D: Time = 6.01905 s.
oceanWave3D: deltaT = 0.00952381 s.

oceanWave3D: Time = 6.02857 s.
oceanWave3D: deltaT = 0.00952381 s.

oceanWave3D: Time = 6.0381 s.
oceanWave3D: deltaT = 0.00952381 s.

oceanWave3D: Time = 6.04762 s.
oceanWave3D: deltaT = 0.00952381 s.

oceanWave3D: Time = 6.05714 s.
oceanWave3D: deltaT = 0.00952381 s.

oceanWave3D: Time = 6.06667 s.
oceanWave3D: deltaT = 0.00952381 s.

oceanWave3D: Time = 6.07619 s.
oceanWave3D: deltaT = 0.00952381 s.

oceanWave3D: Time = 6.08571 s.
oceanWave3D: deltaT = 0.00952381 s.

oceanWave3D: Time = 6.09524 s.
oceanWave3D: deltaT = 0.00952381 s.

oceanWave3D: Time = 6.10476 s.
oceanWave3D: deltaT = 0.00952381 s.

oceanWave3D: Time = 6.11429 s.
oceanWave3D: deltaT = 0.00952381 s.

oceanWave3D: Time = 6.12381 s.
oceanWave3D: deltaT = 0.00952381 s.

oceanWave3D: Time = 6.13333 s.
oceanWave3D: deltaT = 0.00952381 s.

oceanWave3D: Time = 6.14286 s.
oceanWave3D: deltaT = 0.00952381 s.

oceanWave3D: Time = 6.15238 s.
oceanWave3D: deltaT = 0.00952381 s.

oceanWave3D: Time = 6.1619 s.
oceanWave3D: deltaT = 0.00952381 s.

oceanWave3D: Time = 6.17143 s.
oceanWave3D: deltaT = 0.00952381 s.

oceanWave3D: Time = 6.18095 s.
oceanWave3D: deltaT = 0.00952381 s.

oceanWave3D: Time = 6.19048 s.
oceanWave3D: deltaT = 0.00952381 s.

oceanWave3D: Time = 6.2 s.
oceanWave3D: deltaT = 0.00952381 s.

oceanWave3D: Time = 6.20952 s.
oceanWave3D: deltaT = 0.00952381 s.

oceanWave3D: Time = 6.21905 s.
oceanWave3D: deltaT = 0.00952381 s.

oceanWave3D: Time = 6.22857 s.
oceanWave3D: deltaT = 0.00952381 s.

oceanWave3D: Time = 6.2381 s.
oceanWave3D: deltaT = 0.00952381 s.

oceanWave3D: Time = 6.24762 s.
oceanWave3D: deltaT = 0.00952381 s.

oceanWave3D: Time = 6.25714 s.
oceanWave3D: deltaT = 0.00952381 s.

oceanWave3D: Time = 6.26667 s.
oceanWave3D: deltaT = 0.00952381 s.

oceanWave3D: Time = 6.27619 s.
oceanWave3D: deltaT = 0.00952381 s.

oceanWave3D: Time = 6.28571 s.
oceanWave3D: deltaT = 0.00952381 s.

oceanWave3D: Time = 6.29524 s.
oceanWave3D: deltaT = 0.00952381 s.

oceanWave3D: Time = 6.30476 s.
oceanWave3D: deltaT = 0.00952381 s.

oceanWave3D: Time = 6.31429 s.
oceanWave3D: deltaT = 0.00952381 s.

oceanWave3D: Time = 6.32381 s.
oceanWave3D: deltaT = 0.00952381 s.

oceanWave3D: Time = 6.33333 s.
oceanWave3D: deltaT = 0.00952381 s.

oceanWave3D: Time = 6.34286 s.
oceanWave3D: deltaT = 0.00952381 s.

oceanWave3D: Time = 6.35238 s.
oceanWave3D: deltaT = 0.00952381 s.

oceanWave3D: Time = 6.3619 s.
oceanWave3D: deltaT = 0.00952381 s.

oceanWave3D: Time = 6.37143 s.
oceanWave3D: deltaT = 0.00952381 s.

oceanWave3D: Time = 6.38095 s.
oceanWave3D: deltaT = 0.00952381 s.

oceanWave3D: Time = 6.39048 s.
oceanWave3D: deltaT = 0.00952381 s.

oceanWave3D: Time = 6.4 s.
oceanWave3D: deltaT = 0.00952381 s.

oceanWave3D: Time = 6.40952 s.
oceanWave3D: deltaT = 0.00952381 s.

oceanWave3D: Time = 6.41905 s.
oceanWave3D: deltaT = 0.00952381 s.

oceanWave3D: Time = 6.42857 s.
oceanWave3D: deltaT = 0.00952381 s.

oceanWave3D: Time = 6.4381 s.
oceanWave3D: deltaT = 0.00952381 s.

oceanWave3D: Time = 6.44762 s.
oceanWave3D: deltaT = 0.00952381 s.

oceanWave3D: Time = 6.45714 s.
oceanWave3D: deltaT = 0.00952381 s.

oceanWave3D: Time = 6.46667 s.
oceanWave3D: deltaT = 0.00952381 s.

oceanWave3D: Time = 6.47619 s.
oceanWave3D: deltaT = 0.00952381 s.

oceanWave3D: Time = 6.48571 s.
oceanWave3D: deltaT = 0.00952381 s.

oceanWave3D: Time = 6.49524 s.
oceanWave3D: deltaT = 0.00952381 s.

oceanWave3D: Time = 6.50476 s.
oceanWave3D: deltaT = 0.00952381 s.

oceanWave3D: Time = 6.51429 s.
oceanWave3D: deltaT = 0.00952381 s.

oceanWave3D: Time = 6.52381 s.
oceanWave3D: deltaT = 0.00952381 s.

oceanWave3D: Time = 6.53333 s.
oceanWave3D: deltaT = 0.00952381 s.

oceanWave3D: Time = 6.54286 s.
oceanWave3D: deltaT = 0.00952381 s.

oceanWave3D: Time = 6.55238 s.
oceanWave3D: deltaT = 0.00952381 s.

oceanWave3D: Time = 6.5619 s.
oceanWave3D: deltaT = 0.00952381 s.

oceanWave3D: Time = 6.57143 s.
oceanWave3D: deltaT = 0.00952381 s.

oceanWave3D: Time = 6.58095 s.
oceanWave3D: deltaT = 0.00952381 s.

oceanWave3D: Time = 6.59048 s.
oceanWave3D: deltaT = 0.00952381 s.

oceanWave3D: Time = 6.6 s.
oceanWave3D: deltaT = 0.00952381 s.

oceanWave3D: Time = 6.60952 s.
oceanWave3D: deltaT = 0.00952381 s.

oceanWave3D: Time = 6.61905 s.
oceanWave3D: deltaT = 0.00952381 s.

oceanWave3D: Time = 6.62857 s.
oceanWave3D: deltaT = 0.00952381 s.

oceanWave3D: Time = 6.6381 s.
oceanWave3D: deltaT = 0.00952381 s.

oceanWave3D: Time = 6.64762 s.
oceanWave3D: deltaT = 0.00952381 s.

oceanWave3D: Time = 6.65714 s.
oceanWave3D: deltaT = 0.00952381 s.

oceanWave3D: Time = 6.66667 s.
oceanWave3D: deltaT = 0.00952381 s.

oceanWave3D: Time = 6.67619 s.
oceanWave3D: deltaT = 0.00952381 s.

oceanWave3D: Time = 6.68571 s.
oceanWave3D: deltaT = 0.00952381 s.

oceanWave3D: Time = 6.69524 s.
oceanWave3D: deltaT = 0.00952381 s.

oceanWave3D: Time = 6.70476 s.
oceanWave3D: deltaT = 0.00952381 s.

oceanWave3D: Time = 6.71429 s.
oceanWave3D: deltaT = 0.00952381 s.

oceanWave3D: Time = 6.72381 s.
oceanWave3D: deltaT = 0.00952381 s.

oceanWave3D: Time = 6.73333 s.
oceanWave3D: deltaT = 0.00952381 s.

oceanWave3D: Time = 6.74286 s.
oceanWave3D: deltaT = 0.00952381 s.

oceanWave3D: Time = 6.75238 s.
oceanWave3D: deltaT = 0.00952381 s.

oceanWave3D: Time = 6.7619 s.
oceanWave3D: deltaT = 0.00952381 s.

oceanWave3D: Time = 6.77143 s.
oceanWave3D: deltaT = 0.00952381 s.

oceanWave3D: Time = 6.78095 s.
oceanWave3D: deltaT = 0.00952381 s.

oceanWave3D: Time = 6.79048 s.
oceanWave3D: deltaT = 0.00952381 s.

oceanWave3D: Time = 6.8 s.
oceanWave3D: deltaT = 0.00952381 s.

oceanWave3D: Time = 6.81 s.
oceanWave3D: deltaT = 0.01 s.

oceanWave3D: Time = 6.82 s.
oceanWave3D: deltaT = 0.01 s.

oceanWave3D: Time = 6.83 s.
oceanWave3D: deltaT = 0.01 s.

oceanWave3D: Time = 6.84 s.
oceanWave3D: deltaT = 0.01 s.

oceanWave3D: Time = 6.84941 s.
oceanWave3D: deltaT = 0.00941176 s.

   Loop no.      550   Time =    5.2190 sec.
 time step number          550  t=   5.2285714285714286     
 An average of     8.61 GMRES iterations done per solve.
   Minimum no.        1 and maximum no.       14 iterations per solve
   Loop no.      560   Time =    5.3143 sec.
 time step number          560  t=   5.3238095238095235     
 An average of     8.64 GMRES iterations done per solve.
   Minimum no.        1 and maximum no.       14 iterations per solve
   Loop no.      570   Time =    5.4095 sec.
 time step number          570  t=   5.4190476190476193     
 An average of     8.66 GMRES iterations done per solve.
   Minimum no.        1 and maximum no.       14 iterations per solve
   Loop no.      580   Time =    5.5048 sec.
 time step number          580  t=   5.5142857142857142     
 An average of     8.69 GMRES iterations done per solve.
   Minimum no.        1 and maximum no.       14 iterations per solve
   Loop no.      590   Time =    5.6000 sec.
 time step number          590  t=   5.6095238095238100     
 An average of     8.71 GMRES iterations done per solve.
   Minimum no.        1 and maximum no.       14 iterations per solve
   Loop no.      600   Time =    5.6952 sec.
 time step number          600  t=   5.7047619047619049     
 An average of     8.73 GMRES iterations done per solve.
   Minimum no.        1 and maximum no.       14 iterations per solve
   Loop no.      610   Time =    5.7905 sec.
 time step number          610  t=   5.8000000000000007     
 An average of     8.75 GMRES iterations done per solve.
   Minimum no.        1 and maximum no.       14 iterations per solve
   Loop no.      620   Time =    5.8871 sec.
 time step number          620  t=   5.8964705882352959     
 An average of     8.78 GMRES iterations done per solve.
   Minimum no.        1 and maximum no.       14 iterations per solve
   Loop no.      630   Time =    5.9812 sec.
 time step number          630  t=   5.9905882352941173     
 An average of     8.81 GMRES iterations done per solve.
   Minimum no.        1 and maximum no.       14 iterations per solve
   Loop no.      640   Time =    6.0762 sec.
 time step number          640  t=   6.0857142857142854     
 An average of     8.85 GMRES iterations done per solve.
   Minimum no.        1 and maximum no.       15 iterations per solve
   Loop no.      650   Time =    6.1714 sec.
 time step number          650  t=   6.1809523809523803     
 An average of     8.89 GMRES iterations done per solve.
   Minimum no.        1 and maximum no.       15 iterations per solve
   Loop no.      660   Time =    6.2667 sec.
 time step number          660  t=   6.2761904761904761     
 An average of     8.93 GMRES iterations done per solve.
   Minimum no.        1 and maximum no.       15 iterations per solve
   Loop no.      670   Time =    6.3619 sec.
 time step number          670  t=   6.3714285714285710     
 An average of     8.96 GMRES iterations done per solve.
   Minimum no.        1 and maximum no.       15 iterations per solve
   Loop no.      680   Time =    6.4571 sec.
 time step number          680  t=   6.4666666666666668     
 An average of     8.98 GMRES iterations done per solve.
   Minimum no.        1 and maximum no.       15 iterations per solve
   Loop no.      690   Time =    6.5524 sec.
 time step number          690  t=   6.5619047619047617     
 An average of     8.99 GMRES iterations done per solve.
   Minimum no.        1 and maximum no.       15 iterations per solve
   Loop no.      700   Time =    6.6476 sec.
 time step number          700  t=   6.6571428571428575     
 An average of     9.01 GMRES iterations done per solve.
   Minimum no.        1 and maximum no.       15 iterations per solve
   Loop no.      710   Time =    6.7429 sec.
 time step number          710  t=   6.7523809523809524     
 An average of     9.03 GMRES iterations done per solve.
   Minimum no.        1 and maximum no.       15 iterations per solve
   Loop no.      720   Time =    6.8400 sec.
 time step number          720  t=   6.8494117647058825     
 An average of     9.06 GMRES iterations done per solve.
oceanWave3D: Time = 6.85882 s.
oceanWave3D: deltaT = 0.00941176 s.

oceanWave3D: Time = 6.86824 s.
oceanWave3D: deltaT = 0.00941176 s.

oceanWave3D: Time = 6.87765 s.
oceanWave3D: deltaT = 0.00941176 s.

oceanWave3D: Time = 6.88706 s.
oceanWave3D: deltaT = 0.00941176 s.

oceanWave3D: Time = 6.89647 s.
oceanWave3D: deltaT = 0.00941176 s.

oceanWave3D: Time = 6.90588 s.
oceanWave3D: deltaT = 0.00941176 s.

oceanWave3D: Time = 6.91529 s.
oceanWave3D: deltaT = 0.00941176 s.

oceanWave3D: Time = 6.92471 s.
oceanWave3D: deltaT = 0.00941176 s.

oceanWave3D: Time = 6.93412 s.
oceanWave3D: deltaT = 0.00941176 s.

oceanWave3D: Time = 6.94353 s.
oceanWave3D: deltaT = 0.00941176 s.

oceanWave3D: Time = 6.95294 s.
oceanWave3D: deltaT = 0.00941176 s.

oceanWave3D: Time = 6.96235 s.
oceanWave3D: deltaT = 0.00941176 s.

oceanWave3D: Time = 6.97176 s.
oceanWave3D: deltaT = 0.00941176 s.

oceanWave3D: Time = 6.98118 s.
oceanWave3D: deltaT = 0.00941176 s.

oceanWave3D: Time = 6.99059 s.
oceanWave3D: deltaT = 0.00941176 s.

oceanWave3D: Time = 7 s.
oceanWave3D: deltaT = 0.00941176 s.

oceanWave3D: Time = 7.00952 s.
oceanWave3D: deltaT = 0.00952381 s.

oceanWave3D: Time = 7.01905 s.
oceanWave3D: deltaT = 0.00952381 s.

oceanWave3D: Time = 7.02857 s.
oceanWave3D: deltaT = 0.00952381 s.

oceanWave3D: Time = 7.0381 s.
oceanWave3D: deltaT = 0.00952381 s.

oceanWave3D: Time = 7.04762 s.
oceanWave3D: deltaT = 0.00952381 s.

oceanWave3D: Time = 7.05714 s.
oceanWave3D: deltaT = 0.00952381 s.

oceanWave3D: Time = 7.06667 s.
oceanWave3D: deltaT = 0.00952381 s.

oceanWave3D: Time = 7.07619 s.
oceanWave3D: deltaT = 0.00952381 s.

oceanWave3D: Time = 7.08571 s.
oceanWave3D: deltaT = 0.00952381 s.

oceanWave3D: Time = 7.09524 s.
oceanWave3D: deltaT = 0.00952381 s.

oceanWave3D: Time = 7.10476 s.
oceanWave3D: deltaT = 0.00952381 s.

oceanWave3D: Time = 7.11429 s.
oceanWave3D: deltaT = 0.00952381 s.

oceanWave3D: Time = 7.12381 s.
oceanWave3D: deltaT = 0.00952381 s.

oceanWave3D: Time = 7.13333 s.
oceanWave3D: deltaT = 0.00952381 s.

oceanWave3D: Time = 7.14286 s.
oceanWave3D: deltaT = 0.00952381 s.

oceanWave3D: Time = 7.15238 s.
oceanWave3D: deltaT = 0.00952381 s.

oceanWave3D: Time = 7.1619 s.
oceanWave3D: deltaT = 0.00952381 s.

oceanWave3D: Time = 7.17143 s.
oceanWave3D: deltaT = 0.00952381 s.

oceanWave3D: Time = 7.18095 s.
oceanWave3D: deltaT = 0.00952381 s.

oceanWave3D: Time = 7.19048 s.
oceanWave3D: deltaT = 0.00952381 s.

oceanWave3D: Time = 7.2 s.
oceanWave3D: deltaT = 0.00952381 s.

oceanWave3D: Time = 7.20952 s.
oceanWave3D: deltaT = 0.00952381 s.

oceanWave3D: Time = 7.21905 s.
oceanWave3D: deltaT = 0.00952381 s.

oceanWave3D: Time = 7.22857 s.
oceanWave3D: deltaT = 0.00952381 s.

oceanWave3D: Time = 7.2381 s.
oceanWave3D: deltaT = 0.00952381 s.

oceanWave3D: Time = 7.24762 s.
oceanWave3D: deltaT = 0.00952381 s.

oceanWave3D: Time = 7.25714 s.
oceanWave3D: deltaT = 0.00952381 s.

oceanWave3D: Time = 7.26667 s.
oceanWave3D: deltaT = 0.00952381 s.

oceanWave3D: Time = 7.27619 s.
oceanWave3D: deltaT = 0.00952381 s.

oceanWave3D: Time = 7.28571 s.
oceanWave3D: deltaT = 0.00952381 s.

oceanWave3D: Time = 7.29524 s.
oceanWave3D: deltaT = 0.00952381 s.

oceanWave3D: Time = 7.30476 s.
oceanWave3D: deltaT = 0.00952381 s.

oceanWave3D: Time = 7.31429 s.
oceanWave3D: deltaT = 0.00952381 s.

oceanWave3D: Time = 7.32381 s.
oceanWave3D: deltaT = 0.00952381 s.

oceanWave3D: Time = 7.33333 s.
oceanWave3D: deltaT = 0.00952381 s.

oceanWave3D: Time = 7.34286 s.
oceanWave3D: deltaT = 0.00952381 s.

oceanWave3D: Time = 7.35238 s.
oceanWave3D: deltaT = 0.00952381 s.

oceanWave3D: Time = 7.3619 s.
oceanWave3D: deltaT = 0.00952381 s.

oceanWave3D: Time = 7.37143 s.
oceanWave3D: deltaT = 0.00952381 s.

oceanWave3D: Time = 7.38095 s.
oceanWave3D: deltaT = 0.00952381 s.

oceanWave3D: Time = 7.39048 s.
oceanWave3D: deltaT = 0.00952381 s.

oceanWave3D: Time = 7.4 s.
oceanWave3D: deltaT = 0.00952381 s.

oceanWave3D: Time = 7.40952 s.
oceanWave3D: deltaT = 0.00952381 s.

oceanWave3D: Time = 7.41905 s.
oceanWave3D: deltaT = 0.00952381 s.

oceanWave3D: Time = 7.42857 s.
[...]
Phase-1 volume fraction = 0.663002  Min(alpha.water) = 0  Max(alpha.water) = 1
Relaxing time: 0.04 s
DILUPBiCG:  Solving for Ux, Initial residual = 0.00476305, Final residual = 5.38955e-12, No Iterations 3
DILUPBiCG:  Solving for Uy, Initial residual = 0.00636929, Final residual = 9.06908e-12, No Iterations 3
GAMG:  Solving for p_rgh, Initial residual = 0.0242016, Final residual = 3.74387e-08, No Iterations 7
GAMG:  Solving for p_rgh, Initial residual = 4.06503e-05, Final residual = 6.66146e-08, No Iterations 4
time step continuity errors : sum local = 8.14997e-09, global = 8.21531e-10, cumulative = 7.9123e-07
GAMG:  Solving for p_rgh, Initial residual = 0.000442946, Final residual = 6.55661e-08, No Iterations 4
GAMG:  Solving for p_rgh, Initial residual = 2.35726e-06, Final residual = 5.39083e-08, No Iterations 1
time step continuity errors : sum local = 6.63271e-09, global = 1.6248e-09, cumulative = 7.92855e-07
GAMG:  Solving for p_rgh, Initial residual = 1.05294e-05, Final residual = 5.18099e-08, No Iterations 1
GAMG:  Solving for p_rgh, Initial residual = 1.11008e-07, Final residual = 4.44897e-09, No Iterations 2
time step continuity errors : sum local = 5.47548e-10, global = -1.71418e-10, cumulative = 7.92683e-07
ExecutionTime = 253.47 s  ClockTime = 254 s

Courant Number mean: 0.0264096 max: 0.241744
Interface Courant Number mean: 0.00158487 max: 0.178936
deltaT = 0.0032304
Time = 16.0449

External step: 0.07 s.
PIMPLE: iteration 1
smoothSolver:  Solving for alpha.water, Initial residual = 0.000569686, Final residual = 5.59489e-11, No Iterations 2
Phase-1 volume fraction = 0.662967  Min(alpha.water) = 0  Max(alpha.water) = 1
MULES: Correcting alpha.water
Phase-1 volume fraction = 0.662967  Min(alpha.water) = 0  Max(alpha.water) = 1
Relaxing time: 0.05 s
DILUPBiCG:  Solving for Ux, Initial residual = 0.00485733, Final residual = 4.93239e-12, No Iterations 3
DILUPBiCG:  Solving for Uy, Initial residual = 0.00650096, Final residual = 1.01701e-11, No Iterations 3
GAMG:  Solving for p_rgh, Initial residual = 0.0248013, Final residual = 3.84083e-08, No Iterations 7
GAMG:  Solving for p_rgh, Initial residual = 4.14598e-05, Final residual = 6.8969e-08, No Iterations 4
time step continuity errors : sum local = 8.65727e-09, global = 7.90746e-10, cumulative = 7.93474e-07
GAMG:  Solving for p_rgh, Initial residual = 0.000468796, Final residual = 6.87872e-08, No Iterations 4
GAMG:  Solving for p_rgh, Initial residual = 2.58492e-06, Final residual = 5.36307e-08, No Iterations 1
time step continuity errors : sum local = 6.7723e-09, global = 1.83807e-09, cumulative = 7.95312e-07
GAMG:  Solving for p_rgh, Initial residual = 1.15459e-05, Final residual = 5.58797e-08, No Iterations 1
GAMG:  Solving for p_rgh, Initial residual = 1.25439e-07, Final residual = 4.67807e-09, No Iterations 2
time step continuity errors : sum local = 5.90906e-10, global = -1.72037e-10, cumulative = 7.9514e-07
ExecutionTime = 253.76 s  ClockTime = 254 s

Courant Number mean: 0.0269469 max: 0.24075
Interface Courant Number mean: 0.00162881 max: 0.189683
deltaT = 0.00329914
Time = 16.0482

External step: 0.07 s.
PIMPLE: iteration 1
smoothSolver:  Solving for alpha.water, Initial residual = 0.000582006, Final residual = 6.17373e-11, No Iterations 2
Phase-1 volume fraction = 0.66293  Min(alpha.water) = 0  Max(alpha.water) = 1
MULES: Correcting alpha.water
Phase-1 volume fraction = 0.66293  Min(alpha.water) = 0  Max(alpha.water) = 1
Relaxing time: 0.04 s
DILUPBiCG:  Solving for Ux, Initial residual = 0.00495719, Final residual = 7.78664e-12, No Iterations 3
DILUPBiCG:  Solving for Uy, Initial residual = 0.00663906, Final residual = 1.56955e-11, No Iterations 3
GAMG:  Solving for p_rgh, Initial residual = 0.0253507, Final residual = 3.98195e-08, No Iterations 7
GAMG:  Solving for p_rgh, Initial residual = 4.31119e-05, Final residual = 7.29687e-08, No Iterations 4
time step continuity errors : sum local = 9.38029e-09, global = 9.69684e-10, cumulative = 7.9611e-07
GAMG:  Solving for p_rgh, Initial residual = 0.000488248, Final residual = 7.165e-08, No Iterations 4
GAMG:  Solving for p_rgh, Initial residual = 2.69928e-06, Final residual = 5.9434e-08, No Iterations 1
time step continuity errors : sum local = 7.68885e-09, global = 1.96544e-09, cumulative = 7.98075e-07
GAMG:  Solving for p_rgh, Initial residual = 1.24502e-05, Final residual = 5.85891e-08, No Iterations 1
GAMG:  Solving for p_rgh, Initial residual = 1.47342e-07, Final residual = 4.85649e-09, No Iterations 2
time step continuity errors : sum local = 6.28466e-10, global = -1.73491e-10, cumulative = 7.97902e-07
ExecutionTime = 254.05 s  ClockTime = 254 s

Courant Number mean: 0.0275195 max: 0.243486
Interface Courant Number mean: 0.00164864 max: 0.165345
deltaT = 0.00337245
Time = 16.0516

External step: 0.07 s.
PIMPLE: iteration 1
smoothSolver:  Solving for alpha.water, Initial residual = 0.000595179, Final residual = 6.85299e-11, No Iterations 2
Phase-1 volume fraction = 0.662893  Min(alpha.water) = 0  Max(alpha.water) = 1
MULES: Correcting alpha.water
Phase-1 volume fraction = 0.662893  Min(alpha.water) = 0  Max(alpha.water) = 1
Relaxing time: 0.04 s
DILUPBiCG:  Solving for Ux, Initial residual = 0.00506415, Final residual = 1.0245e-11, No Iterations 3
DILUPBiCG:  Solving for Uy, Initial residual = 0.00678972, Final residual = 1.6978e-11, No Iterations 3
GAMG:  Solving for p_rgh, Initial residual = 0.0259045, Final residual = 4.07598e-08, No Iterations 7
GAMG:  Solving for p_rgh, Initial residual = 4.63414e-05, Final residual = 7.53018e-08, No Iterations 4
time step continuity errors : sum local = 9.92728e-09, global = 9.23102e-10, cumulative = 7.98825e-07
GAMG:  Solving for p_rgh, Initial residual = 0.000520147, Final residual = 7.58124e-08, No Iterations 4
GAMG:  Solving for p_rgh, Initial residual = 2.64955e-06, Final residual = 7.06325e-08, No Iterations 1
time step continuity errors : sum local = 9.37386e-09, global = 2.00339e-09, cumulative = 8.00828e-07
GAMG:  Solving for p_rgh, Initial residual = 1.33778e-05, Final residual = 6.41207e-08, No Iterations 1
GAMG:  Solving for p_rgh, Initial residual = 1.8111e-07, Final residual = 5.12421e-09, No Iterations 2
time step continuity errors : sum local = 6.80273e-10, global = -1.77699e-10, cumulative = 8.0065e-07
ExecutionTime = 254.34 s  ClockTime = 255 s

Courant Number mean: 0.0281311 max: 0.245587
Interface Courant Number mean: 0.00167419 max: 0.176221
deltaT = 0.00337245
Time = 16.055

External step: 0.07 s.
PIMPLE: iteration 1
smoothSolver:  Solving for alpha.water, Initial residual = 0.0005954, Final residual = 6.83538e-11, No Iterations 2
Phase-1 volume fraction = 0.662855  Min(alpha.water) = 0  Max(alpha.water) = 1
MULES: Correcting alpha.water
Phase-1 volume fraction = 0.662855  Min(alpha.water) = 0  Max(alpha.water) = 1
Relaxing time: 0.04 s
DILUPBiCG:  Solving for Ux, Initial residual = 0.00506106, Final residual = 7.48076e-12, No Iterations 3
DILUPBiCG:  Solving for Uy, Initial residual = 0.0067837, Final residual = 1.0017e-11, No Iterations 3
GAMG:  Solving for p_rgh, Initial residual = 0.0260242, Final residual = 4.20795e-08, No Iterations 7
GAMG:  Solving for p_rgh, Initial residual = 4.61164e-05, Final residual = 7.46302e-08, No Iterations 4
time step continuity errors : sum local = 9.70957e-09, global = 8.02103e-10, cumulative = 8.01453e-07
GAMG:  Solving for p_rgh, Initial residual = 0.000525577, Final residual = 7.6122e-08, No Iterations 4
GAMG:  Solving for p_rgh, Initial residual = 2.13121e-06, Final residual = 6.65569e-08, No Iterations 1
time step continuity errors : sum local = 8.71873e-09, global = 1.7369e-09, cumulative = 8.03189e-07
GAMG:  Solving for p_rgh, Initial residual = 1.28378e-05, Final residual = 6.46663e-08, No Iterations 1
GAMG:  Solving for p_rgh, Initial residual = 1.77057e-07, Final residual = 4.99792e-09, No Iterations 2
time step continuity errors : sum local = 6.54933e-10, global = -2.29353e-10, cumulative = 8.0296e-07
ExecutionTime = 254.63 s  ClockTime = 255 s

Courant Number mean: 0.0281316 max: 0.241339
Interface Courant Number mean: 0.00171003 max: 0.182946
deltaT = 0.00345275
Time = 16.0584

External step: 0.07 s.
PIMPLE: iteration 1
smoothSolver:  Solving for alpha.water, Initial residual = 0.000609814, Final residual = 7.63178e-11, No Iterations 2
Phase-1 volume fraction = 0.662817  Min(alpha.water) = 0  Max(alpha.water) = 1
MULES: Correcting alpha.water
Phase-1 volume fraction = 0.662817  Min(alpha.water) = 0  Max(alpha.water) = 1
Relaxing time: 0.05 s
DILUPBiCG:  Solving for Ux, Initial residual = 0.00517842, Final residual = 2.94951e-12, No Iterations 3
DILUPBiCG:  Solving for Uy, Initial residual = 0.00695495, Final residual = 8.87168e-10, No Iterations 2
GAMG:  Solving for p_rgh, Initial residual = 0.0267695, Final residual = 4.31521e-08, No Iterations 7
GAMG:  Solving for p_rgh, Initial residual = 4.62723e-05, Final residual = 7.48556e-08, No Iterations 4
time step continuity errors : sum local = 1.00692e-08, global = 7.36735e-10, cumulative = 8.03697e-07
GAMG:  Solving for p_rgh, Initial residual = 0.00056076, Final residual = 8.02046e-08, No Iterations 4
GAMG:  Solving for p_rgh, Initial residual = 2.04033e-06, Final residual = 9.17826e-08, No Iterations 1
time step continuity errors : sum local = 1.24398e-08, global = 1.74682e-09, cumulative = 8.05444e-07
GAMG:  Solving for p_rgh, Initial residual = 1.31485e-05, Final residual = 7.38447e-08, No Iterations 1
GAMG:  Solving for p_rgh, Initial residual = 1.75085e-07, Final residual = 5.78576e-09, No Iterations 2
time step continuity errors : sum local = 7.84467e-10, global = -3.53094e-10, cumulative = 8.05091e-07
ExecutionTime = 254.93 s  ClockTime = 255 s

Courant Number mean: 0.0288014 max: 0.242105
Interface Courant Number mean: 0.00174863 max: 0.193574
deltaT = 0.00353907
Time = 16.062

External step: 0.07 s.
PIMPLE: iteration 1
smoothSolver:  Solving for alpha.water, Initial residual = 0.000625544, Final residual = 8.58464e-11, No Iterations 2
Phase-1 volume fraction = 0.662778  Min(alpha.water) = 0  Max(alpha.water) = 1
MULES: Correcting alpha.water
Phase-1 volume fraction = 0.662778  Min(alpha.water) = 0  Max(alpha.water) = 1
Relaxing time: 0.04 s
DILUPBiCG:  Solving for Ux, Initial residual = 0.00530879, Final residual = 5.4622e-11, No Iterations 3
DILUPBiCG:  Solving for Uy, Initial residual = 0.00714058, Final residual = 4.93296e-11, No Iterations 3
GAMG:  Solving for p_rgh, Initial residual = 0.0275323, Final residual = 4.4623e-08, No Iterations 7
GAMG:  Solving for p_rgh, Initial residual = 4.90956e-05, Final residual = 7.74026e-08, No Iterations 4
time step continuity errors : sum local = 1.07827e-08, global = 9.46349e-10, cumulative = 8.06037e-07
GAMG:  Solving for p_rgh, Initial residual = 0.000588414, Final residual = 8.22207e-08, No Iterations 4
GAMG:  Solving for p_rgh, Initial residual = 2.30246e-06, Final residual = 8.77442e-08, No Iterations 1
time step continuity errors : sum local = 1.23277e-08, global = 1.56827e-09, cumulative = 8.07605e-07
GAMG:  Solving for p_rgh, Initial residual = 1.45741e-05, Final residual = 6.52702e-08, No Iterations 1
GAMG:  Solving for p_rgh, Initial residual = 2.02935e-07, Final residual = 6.53837e-09, No Iterations 2
time step continuity errors : sum local = 9.18954e-10, global = -3.27091e-10, cumulative = 8.07278e-07
ExecutionTime = 255.23 s  ClockTime = 256 s

Courant Number mean: 0.0295165 max: 0.244514
Interface Courant Number mean: 0.00178185 max: 0.203949
deltaT = 0.00353907
Time = 16.0655

External step: 0.07 s.
PIMPLE: iteration 1
smoothSolver:  Solving for alpha.water, Initial residual = 0.000625903, Final residual = 8.62128e-11, No Iterations 2
Phase-1 volume fraction = 0.662738  Min(alpha.water) = 0  Max(alpha.water) = 1
MULES: Correcting alpha.water
Phase-1 volume fraction = 0.662738  Min(alpha.water) = 0  Max(alpha.water) = 1
Relaxing time: 0.04 s
DILUPBiCG:  Solving for Ux, Initial residual = 0.00530773, Final residual = 6.34088e-12, No Iterations 3
DILUPBiCG:  Solving for Uy, Initial residual = 0.00713429, Final residual = 4.15686e-11, No Iterations 3
GAMG:  Solving for p_rgh, Initial residual = 0.0279072, Final residual = 4.34609e-08, No Iterations 7
GAMG:  Solving for p_rgh, Initial residual = 5.10847e-05, Final residual = 7.96988e-08, No Iterations 4
time step continuity errors : sum local = 1.10145e-08, global = 3.54594e-10, cumulative = 8.07633e-07
GAMG:  Solving for p_rgh, Initial residual = 0.000581055, Final residual = 8.26696e-08, No Iterations 4
GAMG:  Solving for p_rgh, Initial residual = 2.55406e-06, Final residual = 9.52817e-08, No Iterations 1
time step continuity errors : sum local = 1.32689e-08, global = 1.84134e-09, cumulative = 8.09474e-07
GAMG:  Solving for p_rgh, Initial residual = 1.44439e-05, Final residual = 7.06621e-08, No Iterations 1
GAMG:  Solving for p_rgh, Initial residual = 2.09139e-07, Final residual = 6.47949e-09, No Iterations 2
time step continuity errors : sum local = 9.02686e-10, global = -3.21524e-10, cumulative = 8.09152e-07
ExecutionTime = 255.52 s  ClockTime = 256 s

Courant Number mean: 0.0295197 max: 0.243502
Interface Courant Number mean: 0.00176971 max: 0.184427
deltaT = 0.00353907
Time = 16.0691

External step: 0.1 s.
PIMPLE: iteration 1
smoothSolver:  Solving for alpha.water, Initial residual = 0.000626095, Final residual = 8.56947e-11, No Iterations 2
Phase-1 volume fraction = 0.662699  Min(alpha.water) = 0  Max(alpha.water) = 1
MULES: Correcting alpha.water
Phase-1 volume fraction = 0.662699  Min(alpha.water) = 0  Max(alpha.water) = 1
Relaxing time: 0.06 s
DILUPBiCG:  Solving for Ux, Initial residual = 0.00530685, Final residual = 6.84752e-10, No Iterations 2
DILUPBiCG:  Solving for Uy, Initial residual = 0.00712685, Final residual = 7.58076e-11, No Iterations 3
GAMG:  Solving for p_rgh, Initial residual = 0.028379, Final residual = 4.3845e-08, No Iterations 7
GAMG:  Solving for p_rgh, Initial residual = 5.1184e-05, Final residual = 8.0498e-08, No Iterations 4
time step continuity errors : sum local = 1.10252e-08, global = 4.60506e-10, cumulative = 8.09613e-07
GAMG:  Solving for p_rgh, Initial residual = 0.000595529, Final residual = 8.5523e-08, No Iterations 4
GAMG:  Solving for p_rgh, Initial residual = 2.43215e-06, Final residual = 8.65439e-08, No Iterations 1
time step continuity errors : sum local = 1.19428e-08, global = 2.03435e-09, cumulative = 8.11647e-07
GAMG:  Solving for p_rgh, Initial residual = 1.47369e-05, Final residual = 7.26706e-08, No Iterations 1
GAMG:  Solving for p_rgh, Initial residual = 1.81208e-07, Final residual = 6.08021e-09, No Iterations 2
time step continuity errors : sum local = 8.39384e-10, global = -3.34836e-10, cumulative = 8.11313e-07
ExecutionTime = 255.86 s  ClockTime = 256 s

Courant Number mean: 0.0295215 max: 0.243009
Interface Courant Number mean: 0.00178412 max: 0.191769
deltaT = 0.00363737
Time = 16.0727

External step: 0.08 s.
PIMPLE: iteration 1
smoothSolver:  Solving for alpha.water, Initial residual = 0.000643532, Final residual = 9.70353e-11, No Iterations 2
Phase-1 volume fraction = 0.662659  Min(alpha.water) = 0  Max(alpha.water) = 1
MULES: Correcting alpha.water
Phase-1 volume fraction = 0.662659  Min(alpha.water) = 0  Max(alpha.water) = 1
Relaxing time: 0.05 s
DILUPBiCG:  Solving for Ux, Initial residual = 0.00545267, Final residual = 4.66897e-10, No Iterations 2
DILUPBiCG:  Solving for Uy, Initial residual = 0.00733206, Final residual = 1.34366e-11, No Iterations 3
GAMG:  Solving for p_rgh, Initial residual = 0.0293853, Final residual = 4.6127e-08, No Iterations 7
GAMG:  Solving for p_rgh, Initial residual = 5.23522e-05, Final residual = 8.29459e-08, No Iterations 4
time step continuity errors : sum local = 1.18127e-08, global = 4.22918e-10, cumulative = 8.11735e-07
GAMG:  Solving for p_rgh, Initial residual = 0.000651436, Final residual = 9.56966e-08, No Iterations 4
GAMG:  Solving for p_rgh, Initial residual = 2.63244e-06, Final residual = 9.05134e-08, No Iterations 1
time step continuity errors : sum local = 1.299e-08, global = 2.60735e-09, cumulative = 8.14343e-07
GAMG:  Solving for p_rgh, Initial residual = 1.62384e-05, Final residual = 7.51525e-08, No Iterations 1
GAMG:  Solving for p_rgh, Initial residual = 1.88276e-07, Final residual = 6.84756e-09, No Iterations 2
time step continuity errors : sum local = 9.83145e-10, global = -3.20742e-10, cumulative = 8.14022e-07
ExecutionTime = 256.15 s  ClockTime = 256 s

Courant Number mean: 0.0303432 max: 0.25123
Interface Courant Number mean: 0.00182733 max: 0.205951
deltaT = 0.00353634
Time = 16.0762

External step: 0.08 s.
PIMPLE: iteration 1
smoothSolver:  Solving for alpha.water, Initial residual = 0.000625801, Final residual = 8.42144e-11, No Iterations 2
Phase-1 volume fraction = 0.66262  Min(alpha.water) = 0  Max(alpha.water) = 1
MULES: Correcting alpha.water
Phase-1 volume fraction = 0.66262  Min(alpha.water) = 0  Max(alpha.water) = 1
Relaxing time: 0.04 s
DILUPBiCG:  Solving for Ux, Initial residual = 0.00529821, Final residual = 5.02618e-10, No Iterations 2
DILUPBiCG:  Solving for Uy, Initial residual = 0.00709929, Final residual = 1.01338e-11, No Iterations 3
GAMG:  Solving for p_rgh, Initial residual = 0.0288585, Final residual = 4.8607e-08, No Iterations 7
GAMG:  Solving for p_rgh, Initial residual = 5.1479e-05, Final residual = 8.37372e-08, No Iterations 4
time step continuity errors : sum local = 1.10937e-08, global = 1.93561e-10, cumulative = 8.14216e-07
GAMG:  Solving for p_rgh, Initial residual = 0.000605962, Final residual = 8.99382e-08, No Iterations 4
GAMG:  Solving for p_rgh, Initial residual = 2.66544e-06, Final residual = 7.86761e-08, No Iterations 1
time step continuity errors : sum local = 1.05018e-08, global = 2.12502e-09, cumulative = 8.16341e-07
GAMG:  Solving for p_rgh, Initial residual = 1.47795e-05, Final residual = 7.06157e-08, No Iterations 1
GAMG:  Solving for p_rgh, Initial residual = 1.68535e-07, Final residual = 6.41489e-09, No Iterations 2
time step continuity errors : sum local = 8.56625e-10, global = -3.11575e-10, cumulative = 8.16029e-07
ExecutionTime = 256.45 s  ClockTime = 257 s

Courant Number mean: 0.0295042 max: 0.248253
Interface Courant Number mean: 0.00176473 max: 0.168301
deltaT = 0.00353634
Time = 16.0798

External step: 0.07 s.
PIMPLE: iteration 1
smoothSolver:  Solving for alpha.water, Initial residual = 0.000625908, Final residual = 8.40267e-11, No Iterations 2
Phase-1 volume fraction = 0.662581  Min(alpha.water) = 0  Max(alpha.water) = 1
MULES: Correcting alpha.water
Phase-1 volume fraction = 0.662581  Min(alpha.water) = 0  Max(alpha.water) = 1
Relaxing time: 0.05 s
DILUPBiCG:  Solving for Ux, Initial residual = 0.00529598, Final residual = 8.60559e-10, No Iterations 2
DILUPBiCG:  Solving for Uy, Initial residual = 0.00709216, Final residual = 1.01864e-11, No Iterations 3
GAMG:  Solving for p_rgh, Initial residual = 0.0290803, Final residual = 4.58699e-08, No Iterations 7
GAMG:  Solving for p_rgh, Initial residual = 5.31563e-05, Final residual = 8.52376e-08, No Iterations 4
time step continuity errors : sum local = 1.10981e-08, global = -2.09614e-10, cumulative = 8.15819e-07
GAMG:  Solving for p_rgh, Initial residual = 0.00060602, Final residual = 8.9828e-08, No Iterations 4
GAMG:  Solving for p_rgh, Initial residual = 2.85646e-06, Final residual = 8.2609e-08, No Iterations 1
time step continuity errors : sum local = 1.0843e-08, global = 2.08675e-09, cumulative = 8.17906e-07
GAMG:  Solving for p_rgh, Initial residual = 1.49923e-05, Final residual = 7.46789e-08, No Iterations 1
GAMG:  Solving for p_rgh, Initial residual = 1.71714e-07, Final residual = 6.36293e-09, No Iterations 2
time step continuity errors : sum local = 8.35537e-10, global = -2.87798e-10, cumulative = 8.17618e-07
ExecutionTime = 256.74 s  ClockTime = 257 s

Courant Number mean: 0.0295084 max: 0.252972
Interface Courant Number mean: 0.00177794 max: 0.175545
deltaT = 0.0034353
Time = 16.0832

