/*---------------------------------------------------------------------------*\
| =========                 |                                                 |
| \\      /  F ield         | OpenFOAM: The Open Source CFD Toolbox           |
|  \\    /   O peration     | Version:  3.0.1                                 |
|   \\  /    A nd           | Web:      www.OpenFOAM.org                      |
|    \\/     M anipulation  |                                                 |
\*---------------------------------------------------------------------------*/
Build  : 3.0.1-d8a290b55d28
Exec   : waveFoam
Date   : Jun 19 2018
Time   : 18:36:05
Host   : "RN1"
PID    : 6707
Case   : /home/rn1/OpenFOAM/rn1-3.0.1/applications/utilities/2-way-coupling/tutorials/2WayCouplingOceanWave3D/test
nProcs : 1
sigFpe : Enabling floating point exception trapping (FOAM_SIGFPE).
fileModificationChecking : Monitoring run-time modified files using timeStampMaster
allowSystemOperations : Allowing user-supplied system call operations

// * * * * * * * * * * * * * * * * * * * * * * * * * * * * * * * * * * * * * //
Create time

Create mesh for time = 0

// using new solver syntax:
pcorr
{
    solver          GAMG;
    tolerance       1e-07;
    relTol          0;
    smoother        DIC;
    nPreSweeps      0;
    nPostSweeps     2;
    nFinestSweeps   2;
    cacheAgglomeration true;
    nCellsInCoarsestLevel 10;
    agglomerator    faceAreaPair;
    mergeLevels     1;
}

// using new solver syntax:
p_rgh
{
    solver          GAMG;
    tolerance       1e-07;
    relTol          0;
    smoother        DIC;
    nPreSweeps      0;
    nPostSweeps     2;
    nFinestSweeps   2;
    cacheAgglomeration true;
    nCellsInCoarsestLevel 10;
    agglomerator    faceAreaPair;
    mergeLevels     1;
}

// using new solver syntax:
p_rghFinal
{
    solver          GAMG;
    tolerance       1e-08;
    relTol          0;
    smoother        DIC;
    nPreSweeps      0;
    nPostSweeps     2;
    nFinestSweeps   2;
    cacheAgglomeration true;
    nCellsInCoarsestLevel 10;
    agglomerator    faceAreaPair;
    mergeLevels     1;
}

// using new solver syntax:
U
{
    solver          PBiCG;
    preconditioner  DILU;
    tolerance       1e-09;
    relTol          0;
}

// using new solver syntax:
UFinal
{
    solver          PBiCG;
    preconditioner  DILU;
    tolerance       1e-09;
    relTol          0;
}

// using new solver syntax:
gamma
{
    solver          PBiCG;
    preconditioner  DILU;
    tolerance       1e-07;
    relTol          0;
}


PIMPLE: Operating solver in PISO mode


Reading g

Reading waveProperties

Reading waveProperties

*********************************************************
***                                                   ***
*** OceanWave3D - a coastal engineering tool for      ***
*** simulation of nonlinear free surface waves.       ***
*** Copyright (C) 2009 Allan P. Engsig-Karup.         ***
***                                                   ***
*** This OceanWave3D program comes with ABSOLUTELY NO ***
*** WARRANTY. It is distributed under the conditions  ***
*** of the GNU General Public License version 3.      ***
***                                                   ***
***     Software library developed in 2009 by         ***
***                                                   ***
***     Allan P. Engsig-Karup                         ***
***     Guillaume Ducrozet                            ***
***                                                   ***
*** At DTU Informatics                                ***
***    Scientific Computing Section                   ***
***    Technical University of Denmark                ***
***                                                   ***
***     Original software library written in 2007 by  ***
***                                                   ***
***     Allan P. Engsig-Karup                         ***
***     Harry B. Bingham                              ***
***                                                   ***
*** At Department of Mechanical Engineering           ***
***    Coastal, Maritime and Structural Eng. Section  ***
***    Technical University of Denmark                ***
***                                                   ***
*********************************************************

   Input file with model parameters : OceanWave3D.inp                         

   Header title.................... : Header                                                                  

   PARAMETER INPUT

   Initial Condition (IC), Predefined :   0

   Local filtering downward vertical acceleration limit is: ********
 * g m/s^2.  Theoretically breaking should occur between 0.5 and 1.


   Bathymetry                         : Predefined (in setup for IC)
   (Nx,Ny,Nz)=(  500,    1,   15)
   Size of dx: .8016E-01

   The problem is without a y-dimension.

   Uneven node-distribution in Z
   Ghost point layer included below bottom.

   Half-width stencils: (alpha,beta,gamma)=( 3, 0, 3)
   Half-width stencils: (alpha,beta,gamma)=( 1, 0, 1) (Preconditioner)
  
 Starting time for this run is    0.0000000000000000     
   Number of time steps chosen:    10000
   Size of time increment: .1000E-01
    Time-integration method: Classical Runge-Kutta fourth order
    GMRES method is chosen.
    Strategy: GMRES + LU (order            2 )
    Tolerance levels user-defined. RelTol =    1.0000000000000000E-008  and AbsTol =    9.9999999999999995E-007
 
   Fully nonlinear model is employed.

 No free-surface pressure term is being applied.  

    SG(          13 ,          10 )-filtering will be employed after every            1  time step.
  
 No breaking model line found, the feature is off.
  
     Total relaxation zones defined:            1
  
 Found            1  pressure damping zones.
   Standard Cartesian model employed.

 format type 1:           0
 FilterInit:  Boundary filtering is turned on with values:
   8.0000000000000002E-002   8.0000000000000002E-002  0.40000000000000002     
  
 Initializing variables and arrays.
 Relaxation zone setup:
  Zone  1: idx=(     2,    65,     1,     1)
   Relaxation zones have been setup.
      SF solution: k=   1.6729156711127393      ,h=  0.40000000000000002      ,H=  0.10000000000000001      ,T=   2.0000000000000000      ,L=   100.00000000000000     
                   kh=  0.66916626844509575      ,c=   50.000000000000000     
 The incident wave is a stream function wave with L=0.375583E+01
  T=0.200000E+01 H=0.100000E+00 u_E=-.156747E-01 and u_S=0.000000E+00


 setup ICs...
 IC chosen is case            0
 Initial condition is still water.
 done with ICs
  
 Pressure damping zone            1  will be applied from x=   30.060120240480963       to x=   40.000000000000000     
OF-time: 0
OCW-time: 0
Interval: [5, 20]
Identical starting times for OceanWave3D and OpenFoam
Reading field p_rgh

Reading field U

Reading/calculating face flux field phi

Reading transportProperties

Selecting incompressible transport model Newtonian
Selecting incompressible transport model Newtonian
Selecting turbulence model type laminar
No MRF models present

No finite volume options present

GAMG:  Solving for pcorr, Initial residual = 1.31981e-291, Final residual = 1.31981e-291, No Iterations 0
GAMG:  Solving for pcorr, Initial residual = 1.31981e-291, Final residual = 1.31981e-291, No Iterations 0
time step continuity errors : sum local = 1.22205e-314, global = -6.1102e-315, cumulative = -6.1102e-315
Courant Number mean: 3.2658e-312 max: 3.27228e-312

Starting time loop

Courant Number mean: 3.2658e-312 max: 3.27228e-312
Interface Courant Number mean: 0 max: 0
deltaT = 0.0011976
Time = 0.0011976

oceanWave3D: Time = 0.00262784 s.
oceanWave3D: deltaT = 0.00143023 s.

oceanWave3D: Time = 0.00432932 s.
oceanWave3D: deltaT = 0.00170148 s.

oceanWave3D: Time = 0.00636756 s.
oceanWave3D: deltaT = 0.00203824 s.

oceanWave3D: Time = 0.00878796 s.
oceanWave3D: deltaT = 0.00242041 s.

oceanWave3D: Time = 0.0116851 s.
oceanWave3D: deltaT = 0.00289715 s.

oceanWave3D: Time = 0.015109 s.
oceanWave3D: deltaT = 0.00342391 s.

oceanWave3D: Time = 0.0191284 s.
oceanWave3D: deltaT = 0.00401937 s.

oceanWave3D: Time = 0.0238882 s.
oceanWave3D: deltaT = 0.00475978 s.

oceanWave3D: Time = 0.0295692 s.
oceanWave3D: deltaT = 0.00568103 s.

oceanWave3D: Time = 0.0361242 s.
oceanWave3D: deltaT = 0.00655503 s.

oceanWave3D: Time = 0.0439278 s.
oceanWave3D: deltaT = 0.00780361 s.

oceanWave3D: Time = 0.0531086 s.
oceanWave3D: deltaT = 0.00918072 s.

oceanWave3D: Time = 0.0629013 s.
oceanWave3D: deltaT = 0.00979276 s.

oceanWave3D: Time = 0.0726941 s.
oceanWave3D: deltaT = 0.00979276 s.

oceanWave3D: Time = 0.0824868 s.
oceanWave3D: deltaT = 0.00979276 s.

oceanWave3D: Time = 0.0922796 s.
oceanWave3D: deltaT = 0.00979276 s.

oceanWave3D: Time = 0.102072 s.
oceanWave3D: deltaT = 0.00979276 s.

oceanWave3D: Time = 0.111865 s.
oceanWave3D: deltaT = 0.00979276 s.

oceanWave3D: Time = 0.121658 s.
oceanWave3D: deltaT = 0.00979276 s.

                                         and from y=   1.0000000000000000       to y=   1.0000000000000000     
  
  
 PreprocessPDampingZones:  Factoring the Laplacian matrix.
  
 Pressure damping zones are set up
  
   Preconditioner: DIRECT LU ( 2 order, linear)
 Building stencils...
   Preconditioning matrix generated.
 workspaceSize =       201151
 Determine finite difference stencils for the system matrix...
 Building stencils...
 ...done!
          -1
           1
    ITERATIVE SOLVER WORKSPACE SIZE =       201151
 A total of       28 GMRES iterations done.
 A total of       14 GMRES iterations done in first time step.
 An average of     7.00 GMRES iterations done per solve.
   Minimum no.        1 and maximum no.        6 iterations per solve
 A total of       42 GMRES iterations done.
 A total of       14 GMRES iterations done in first time step.
 An average of     5.25 GMRES iterations done per solve.
   Minimum no.        1 and maximum no.        6 iterations per solve
 An average of     7.00 GMRES iterations done per solve excluding first time step iteration counts.
   Minimum no.        1 and maximum no.        6 iterations per solve excluding first time step solves
 A total of       57 GMRES iterations done.
 A total of       14 GMRES iterations done in first time step.
 An average of     4.75 GMRES iterations done per solve.
   Minimum no.        1 and maximum no.        7 iterations per solve
 An average of     5.38 GMRES iterations done per solve excluding first time step iteration counts.
   Minimum no.        1 and maximum no.        7 iterations per solve excluding first time step solves
 A total of       72 GMRES iterations done.
 A total of       14 GMRES iterations done in first time step.
 An average of     4.50 GMRES iterations done per solve.
   Minimum no.        1 and maximum no.        7 iterations per solve
 An average of     4.83 GMRES iterations done per solve excluding first time step iteration counts.
   Minimum no.        1 and maximum no.        7 iterations per solve excluding first time step solves
 A total of       89 GMRES iterations done.
 A total of       14 GMRES iterations done in first time step.
 An average of     4.45 GMRES iterations done per solve.
   Minimum no.        1 and maximum no.        7 iterations per solve
 An average of     4.69 GMRES iterations done per solve excluding first time step iteration counts.
   Minimum no.        1 and maximum no.        7 iterations per solve excluding first time step solves
 A total of      106 GMRES iterations done.
 A total of       14 GMRES iterations done in first time step.
 An average of     4.42 GMRES iterations done per solve.
   Minimum no.        1 and maximum no.        7 iterations per solve
 An average of     4.60 GMRES iterations done per solve excluding first time step iteration counts.
   Minimum no.        1 and maximum no.        7 iterations per solve excluding first time step solves
 A total of      123 GMRES iterations done.
 A total of       14 GMRES iterations done in first time step.
 An average of     4.39 GMRES iterations done per solve.
   Minimum no.        1 and maximum no.        7 iterations per solve
 An average of     4.54 GMRES iterations done per solve excluding first time step iteration counts.
   Minimum no.        1 and maximum no.        7 iterations per solve excluding first time step solves
 A total of      141 GMRES iterations done.
 A total of       14 GMRES iterations done in first time step.
 An average of     4.41 GMRES iterations done per solve.
   Minimum no.        1 and maximum no.        8 iterations per solve
 An average of     4.54 GMRES iterations done per solve excluding first time step iteration counts.
   Minimum no.        1 and maximum no.        8 iterations per solve excluding first time step solves
   Loop no.       10   Time =    0.0239 sec.
 time step number           10  t=   2.9569197777794341E-002
 An average of     4.47 GMRES iterations done per solve.
   Minimum no.        1 and maximum no.        8 iterations per solve
   Loop no.       20   Time =    0.1119 sec.
oceanWave3D: Time = 0.131451 s.
oceanWave3D: deltaT = 0.00979276 s.

oceanWave3D: Time = 0.141243 s.
oceanWave3D: deltaT = 0.00979276 s.

oceanWave3D: Time = 0.151036 s.
oceanWave3D: deltaT = 0.00979276 s.

oceanWave3D: Time = 0.160829 s.
oceanWave3D: deltaT = 0.00979276 s.

oceanWave3D: Time = 0.170622 s.
oceanWave3D: deltaT = 0.00979276 s.

oceanWave3D: Time = 0.180414 s.
oceanWave3D: deltaT = 0.00979276 s.

oceanWave3D: Time = 0.190207 s.
oceanWave3D: deltaT = 0.00979276 s.

oceanWave3D: Time = 0.2 s.
oceanWave3D: deltaT = 0.00979276 s.

oceanWave3D: Time = 0.209524 s.
oceanWave3D: deltaT = 0.00952381 s.

oceanWave3D: Time = 0.219048 s.
oceanWave3D: deltaT = 0.00952381 s.

oceanWave3D: Time = 0.228571 s.
oceanWave3D: deltaT = 0.00952381 s.

oceanWave3D: Time = 0.238095 s.
oceanWave3D: deltaT = 0.00952381 s.

oceanWave3D: Time = 0.247619 s.
oceanWave3D: deltaT = 0.00952381 s.

oceanWave3D: Time = 0.257143 s.
oceanWave3D: deltaT = 0.00952381 s.

oceanWave3D: Time = 0.266667 s.
oceanWave3D: deltaT = 0.00952381 s.

oceanWave3D: Time = 0.27619 s.
oceanWave3D: deltaT = 0.00952381 s.

oceanWave3D: Time = 0.285714 s.
oceanWave3D: deltaT = 0.00952381 s.

oceanWave3D: Time = 0.295238 s.
oceanWave3D: deltaT = 0.00952381 s.

oceanWave3D: Time = 0.304762 s.
oceanWave3D: deltaT = 0.00952381 s.

oceanWave3D: Time = 0.314286 s.
oceanWave3D: deltaT = 0.00952381 s.

oceanWave3D: Time = 0.32381 s.
oceanWave3D: deltaT = 0.00952381 s.

oceanWave3D: Time = 0.333333 s.
oceanWave3D: deltaT = 0.00952381 s.

oceanWave3D: Time = 0.342857 s.
oceanWave3D: deltaT = 0.00952381 s.

oceanWave3D: Time = 0.352381 s.
oceanWave3D: deltaT = 0.00952381 s.

oceanWave3D: Time = 0.361905 s.
oceanWave3D: deltaT = 0.00952381 s.

oceanWave3D: Time = 0.371429 s.
oceanWave3D: deltaT = 0.00952381 s.

oceanWave3D: Time = 0.380952 s.
oceanWave3D: deltaT = 0.00952381 s.

oceanWave3D: Time = 0.390476 s.
oceanWave3D: deltaT = 0.00952381 s.

oceanWave3D: Time = 0.4 s.
oceanWave3D: deltaT = 0.00952381 s.

oceanWave3D: Time = 0.409524 s.
oceanWave3D: deltaT = 0.00952381 s.

oceanWave3D: Time = 0.419048 s.
oceanWave3D: deltaT = 0.00952381 s.

oceanWave3D: Time = 0.428571 s.
oceanWave3D: deltaT = 0.00952381 s.

oceanWave3D: Time = 0.438095 s.
oceanWave3D: deltaT = 0.00952381 s.

oceanWave3D: Time = 0.447619 s.
oceanWave3D: deltaT = 0.00952381 s.

oceanWave3D: Time = 0.457143 s.
oceanWave3D: deltaT = 0.00952381 s.

oceanWave3D: Time = 0.466667 s.
oceanWave3D: deltaT = 0.00952381 s.

oceanWave3D: Time = 0.47619 s.
oceanWave3D: deltaT = 0.00952381 s.

oceanWave3D: Time = 0.485714 s.
oceanWave3D: deltaT = 0.00952381 s.

oceanWave3D: Time = 0.495238 s.
oceanWave3D: deltaT = 0.00952381 s.

oceanWave3D: Time = 0.504762 s.
oceanWave3D: deltaT = 0.00952381 s.

oceanWave3D: Time = 0.514286 s.
oceanWave3D: deltaT = 0.00952381 s.

oceanWave3D: Time = 0.52381 s.
oceanWave3D: deltaT = 0.00952381 s.

oceanWave3D: Time = 0.533333 s.
oceanWave3D: deltaT = 0.00952381 s.

oceanWave3D: Time = 0.542857 s.
oceanWave3D: deltaT = 0.00952381 s.

oceanWave3D: Time = 0.552381 s.
oceanWave3D: deltaT = 0.00952381 s.

oceanWave3D: Time = 0.561905 s.
oceanWave3D: deltaT = 0.00952381 s.

oceanWave3D: Time = 0.571429 s.
oceanWave3D: deltaT = 0.00952381 s.

oceanWave3D: Time = 0.580952 s.
oceanWave3D: deltaT = 0.00952381 s.

oceanWave3D: Time = 0.590476 s.
oceanWave3D: deltaT = 0.00952381 s.

oceanWave3D: Time = 0.6 s.
oceanWave3D: deltaT = 0.00952381 s.

oceanWave3D: Time = 0.61 s.
oceanWave3D: deltaT = 0.01 s.

oceanWave3D: Time = 0.62 s.
oceanWave3D: deltaT = 0.01 s.

oceanWave3D: Time = 0.63 s.
oceanWave3D: deltaT = 0.01 s.

oceanWave3D: Time = 0.64 s.
oceanWave3D: deltaT = 0.01 s.

oceanWave3D: Time = 0.65 s.
oceanWave3D: deltaT = 0.01 s.

oceanWave3D: Time = 0.66 s.
oceanWave3D: deltaT = 0.01 s.

oceanWave3D: Time = 0.67 s.
oceanWave3D: deltaT = 0.01 s.

oceanWave3D: Time = 0.68 s.
oceanWave3D: deltaT = 0.01 s.

oceanWave3D: Time = 0.69 s.
oceanWave3D: deltaT = 0.01 s.

oceanWave3D: Time = 0.7 s.
oceanWave3D: deltaT = 0.01 s.

oceanWave3D: Time = 0.71 s.
oceanWave3D: deltaT = 0.01 s.

oceanWave3D: Time = 0.72 s.
oceanWave3D: deltaT = 0.01 s.

oceanWave3D: Time = 0.73 s.
oceanWave3D: deltaT = 0.01 s.

oceanWave3D: Time = 0.74 s.
oceanWave3D: deltaT = 0.01 s.

oceanWave3D: Time = 0.75 s.
oceanWave3D: deltaT = 0.01 s.

oceanWave3D: Time = 0.76 s.
oceanWave3D: deltaT = 0.01 s.

oceanWave3D: Time = 0.77 s.
oceanWave3D: deltaT = 0.01 s.

oceanWave3D: Time = 0.78 s.
oceanWave3D: deltaT = 0.01 s.

oceanWave3D: Time = 0.79 s.
oceanWave3D: deltaT = 0.01 s.

oceanWave3D: Time = 0.8 s.
oceanWave3D: deltaT = 0.01 s.

oceanWave3D: Time = 0.81 s.
oceanWave3D: deltaT = 0.01 s.

oceanWave3D: Time = 0.82 s.
oceanWave3D: deltaT = 0.01 s.

oceanWave3D: Time = 0.83 s.
oceanWave3D: deltaT = 0.01 s.

oceanWave3D: Time = 0.84 s.
oceanWave3D: deltaT = 0.01 s.

oceanWave3D: Time = 0.85 s.
oceanWave3D: deltaT = 0.01 s.

oceanWave3D: Time = 0.86 s.
oceanWave3D: deltaT = 0.01 s.

oceanWave3D: Time = 0.87 s.
oceanWave3D: deltaT = 0.01 s.

oceanWave3D: Time = 0.88 s.
oceanWave3D: deltaT = 0.01 s.

oceanWave3D: Time = 0.89 s.
oceanWave3D: deltaT = 0.01 s.

oceanWave3D: Time = 0.9 s.
oceanWave3D: deltaT = 0.01 s.

oceanWave3D: Time = 0.91 s.
oceanWave3D: deltaT = 0.01 s.

oceanWave3D: Time = 0.92 s.
oceanWave3D: deltaT = 0.01 s.

oceanWave3D: Time = 0.93 s.
oceanWave3D: deltaT = 0.01 s.

oceanWave3D: Time = 0.94 s.
oceanWave3D: deltaT = 0.01 s.

oceanWave3D: Time = 0.95 s.
oceanWave3D: deltaT = 0.01 s.

oceanWave3D: Time = 0.96 s.
oceanWave3D: deltaT = 0.01 s.

oceanWave3D: Time = 0.97 s.
oceanWave3D: deltaT = 0.01 s.

oceanWave3D: Time = 0.98 s.
oceanWave3D: deltaT = 0.01 s.

oceanWave3D: Time = 0.99 s.
oceanWave3D: deltaT = 0.01 s.

oceanWave3D: Time = 1 s.
oceanWave3D: deltaT = 0.01 s.

oceanWave3D: Time = 1.00952 s.
oceanWave3D: deltaT = 0.00952381 s.

oceanWave3D: Time = 1.01905 s.
oceanWave3D: deltaT = 0.00952381 s.

oceanWave3D: Time = 1.02857 s.
oceanWave3D: deltaT = 0.00952381 s.

oceanWave3D: Time = 1.0381 s.
oceanWave3D: deltaT = 0.00952381 s.

oceanWave3D: Time = 1.04762 s.
oceanWave3D: deltaT = 0.00952381 s.

oceanWave3D: Time = 1.05714 s.
oceanWave3D: deltaT = 0.00952381 s.

oceanWave3D: Time = 1.06667 s.
oceanWave3D: deltaT = 0.00952381 s.

oceanWave3D: Time = 1.07619 s.
oceanWave3D: deltaT = 0.00952381 s.

oceanWave3D: Time = 1.08571 s.
oceanWave3D: deltaT = 0.00952381 s.

oceanWave3D: Time = 1.09524 s.
oceanWave3D: deltaT = 0.00952381 s.

oceanWave3D: Time = 1.10476 s.
oceanWave3D: deltaT = 0.00952381 s.

oceanWave3D: Time = 1.11429 s.
oceanWave3D: deltaT = 0.00952381 s.

oceanWave3D: Time = 1.12381 s.
oceanWave3D: deltaT = 0.00952381 s.

oceanWave3D: Time = 1.13333 s.
oceanWave3D: deltaT = 0.00952381 s.

oceanWave3D: Time = 1.14286 s.
oceanWave3D: deltaT = 0.00952381 s.

oceanWave3D: Time = 1.15238 s.
oceanWave3D: deltaT = 0.00952381 s.

oceanWave3D: Time = 1.1619 s.
oceanWave3D: deltaT = 0.00952381 s.

oceanWave3D: Time = 1.17143 s.
oceanWave3D: deltaT = 0.00952381 s.

oceanWave3D: Time = 1.18095 s.
oceanWave3D: deltaT = 0.00952381 s.

oceanWave3D: Time = 1.19048 s.
oceanWave3D: deltaT = 0.00952381 s.

oceanWave3D: Time = 1.2 s.
oceanWave3D: deltaT = 0.00952381 s.

oceanWave3D: Time = 1.21 s.
oceanWave3D: deltaT = 0.01 s.

oceanWave3D: Time = 1.22 s.
oceanWave3D: deltaT = 0.01 s.

oceanWave3D: Time = 1.23 s.
oceanWave3D: deltaT = 0.01 s.

oceanWave3D: Time = 1.24 s.
oceanWave3D: deltaT = 0.01 s.

oceanWave3D: Time = 1.25 s.
oceanWave3D: deltaT = 0.01 s.

oceanWave3D: Time = 1.26 s.
oceanWave3D: deltaT = 0.01 s.

oceanWave3D: Time = 1.27 s.
oceanWave3D: deltaT = 0.01 s.

oceanWave3D: Time = 1.28 s.
oceanWave3D: deltaT = 0.01 s.

oceanWave3D: Time = 1.29 s.
oceanWave3D: deltaT = 0.01 s.

oceanWave3D: Time = 1.3 s.
oceanWave3D: deltaT = 0.01 s.

oceanWave3D: Time = 1.31 s.
oceanWave3D: deltaT = 0.01 s.

oceanWave3D: Time = 1.32 s.
oceanWave3D: deltaT = 0.01 s.

oceanWave3D: Time = 1.33 s.
oceanWave3D: deltaT = 0.01 s.

oceanWave3D: Time = 1.34 s.
oceanWave3D: deltaT = 0.01 s.

oceanWave3D: Time = 1.35 s.
oceanWave3D: deltaT = 0.01 s.

oceanWave3D: Time = 1.36 s.
oceanWave3D: deltaT = 0.01 s.

oceanWave3D: Time = 1.37 s.
oceanWave3D: deltaT = 0.01 s.

oceanWave3D: Time = 1.38 s.
oceanWave3D: deltaT = 0.01 s.

oceanWave3D: Time = 1.39 s.
oceanWave3D: deltaT = 0.01 s.

oceanWave3D: Time = 1.4 s.
oceanWave3D: deltaT = 0.01 s.

oceanWave3D: Time = 1.41 s.
oceanWave3D: deltaT = 0.01 s.

oceanWave3D: Time = 1.42 s.
oceanWave3D: deltaT = 0.01 s.

oceanWave3D: Time = 1.43 s.
oceanWave3D: deltaT = 0.01 s.

oceanWave3D: Time = 1.44 s.
oceanWave3D: deltaT = 0.01 s.

oceanWave3D: Time = 1.45 s.
oceanWave3D: deltaT = 0.01 s.

oceanWave3D: Time = 1.46 s.
oceanWave3D: deltaT = 0.01 s.

oceanWave3D: Time = 1.47 s.
oceanWave3D: deltaT = 0.01 s.

oceanWave3D: Time = 1.48 s.
oceanWave3D: deltaT = 0.01 s.

oceanWave3D: Time = 1.49 s.
oceanWave3D: deltaT = 0.01 s.

oceanWave3D: Time = 1.5 s.
oceanWave3D: deltaT = 0.01 s.

oceanWave3D: Time = 1.51 s.
oceanWave3D: deltaT = 0.01 s.

oceanWave3D: Time = 1.52 s.
oceanWave3D: deltaT = 0.01 s.

oceanWave3D: Time = 1.53 s.
oceanWave3D: deltaT = 0.01 s.

oceanWave3D: Time = 1.54 s.
oceanWave3D: deltaT = 0.01 s.

oceanWave3D: Time = 1.55 s.
oceanWave3D: deltaT = 0.01 s.

oceanWave3D: Time = 1.56 s.
oceanWave3D: deltaT = 0.01 s.

oceanWave3D: Time = 1.57 s.
oceanWave3D: deltaT = 0.01 s.

oceanWave3D: Time = 1.58 s.
oceanWave3D: deltaT = 0.01 s.

oceanWave3D: Time = 1.59 s.
oceanWave3D: deltaT = 0.01 s.

oceanWave3D: Time = 1.6 s.
oceanWave3D: deltaT = 0.01 s.

oceanWave3D: Time = 1.61 s.
oceanWave3D: deltaT = 0.01 s.

oceanWave3D: Time = 1.62 s.
oceanWave3D: deltaT = 0.01 s.

oceanWave3D: Time = 1.63 s.
oceanWave3D: deltaT = 0.01 s.

oceanWave3D: Time = 1.64 s.
oceanWave3D: deltaT = 0.01 s.

oceanWave3D: Time = 1.65 s.
oceanWave3D: deltaT = 0.01 s.

oceanWave3D: Time = 1.66 s.
oceanWave3D: deltaT = 0.01 s.

oceanWave3D: Time = 1.67 s.
oceanWave3D: deltaT = 0.01 s.

oceanWave3D: Time = 1.68 s.
oceanWave3D: deltaT = 0.01 s.

oceanWave3D: Time = 1.69 s.
oceanWave3D: deltaT = 0.01 s.

oceanWave3D: Time = 1.7 s.
oceanWave3D: deltaT = 0.01 s.

oceanWave3D: Time = 1.71 s.
oceanWave3D: deltaT = 0.01 s.

oceanWave3D: Time = 1.72 s.
oceanWave3D: deltaT = 0.01 s.

oceanWave3D: Time = 1.73 s.
oceanWave3D: deltaT = 0.01 s.

oceanWave3D: Time = 1.74 s.
oceanWave3D: deltaT = 0.01 s.

oceanWave3D: Time = 1.75 s.
oceanWave3D: deltaT = 0.01 s.

oceanWave3D: Time = 1.76 s.
oceanWave3D: deltaT = 0.01 s.

oceanWave3D: Time = 1.77 s.
oceanWave3D: deltaT = 0.01 s.

oceanWave3D: Time = 1.78 s.
oceanWave3D: deltaT = 0.01 s.

oceanWave3D: Time = 1.79 s.
oceanWave3D: deltaT = 0.01 s.

 time step number           20  t=  0.12165789454700021     
 An average of     5.26 GMRES iterations done per solve.
   Minimum no.        1 and maximum no.        9 iterations per solve
   Loop no.       30   Time =    0.2095 sec.
 time step number           30  t=  0.21904761904761905     
 An average of     5.63 GMRES iterations done per solve.
   Minimum no.        1 and maximum no.        9 iterations per solve
   Loop no.       40   Time =    0.3048 sec.
 time step number           40  t=  0.31428571428571439     
 An average of     5.85 GMRES iterations done per solve.
   Minimum no.        1 and maximum no.        9 iterations per solve
   Loop no.       50   Time =    0.4000 sec.
 time step number           50  t=  0.40952380952380957     
 An average of     6.02 GMRES iterations done per solve.
   Minimum no.        1 and maximum no.        9 iterations per solve
   Loop no.       60   Time =    0.4952 sec.
 time step number           60  t=  0.50476190476190486     
 An average of     6.14 GMRES iterations done per solve.
   Minimum no.        1 and maximum no.        9 iterations per solve
   Loop no.       70   Time =    0.5905 sec.
 time step number           70  t=  0.60000000000000009     
 An average of     6.23 GMRES iterations done per solve.
   Minimum no.        1 and maximum no.        9 iterations per solve
   Loop no.       80   Time =    0.6900 sec.
 time step number           80  t=  0.70000000000000018     
 An average of     6.32 GMRES iterations done per solve.
   Minimum no.        1 and maximum no.       10 iterations per solve
   Loop no.       90   Time =    0.7900 sec.
 time step number           90  t=  0.80000000000000004     
 An average of     6.41 GMRES iterations done per solve.
   Minimum no.        1 and maximum no.       10 iterations per solve
   Loop no.      100   Time =    0.8900 sec.
 time step number          100  t=  0.90000000000000013     
 An average of     6.52 GMRES iterations done per solve.
   Minimum no.        1 and maximum no.       10 iterations per solve
   Loop no.      110   Time =    0.9900 sec.
 time step number          110  t=   1.0000000000000000     
 An average of     6.61 GMRES iterations done per solve.
   Minimum no.        1 and maximum no.       10 iterations per solve
   Loop no.      120   Time =    1.0857 sec.
 time step number          120  t=   1.0952380952380949     
 An average of     6.68 GMRES iterations done per solve.
   Minimum no.        1 and maximum no.       10 iterations per solve
   Loop no.      130   Time =    1.1810 sec.
 time step number          130  t=   1.1904761904761907     
 An average of     6.76 GMRES iterations done per solve.
   Minimum no.        1 and maximum no.       11 iterations per solve
   Loop no.      140   Time =    1.2800 sec.
 time step number          140  t=   1.2900000000000003     
 An average of     6.84 GMRES iterations done per solve.
   Minimum no.        1 and maximum no.       11 iterations per solve
   Loop no.      150   Time =    1.3800 sec.
 time step number          150  t=   1.3900000000000001     
 An average of     6.92 GMRES iterations done per solve.
   Minimum no.        1 and maximum no.       11 iterations per solve
   Loop no.      160   Time =    1.4800 sec.
 time step number          160  t=   1.4900000000000002     
 An average of     6.99 GMRES iterations done per solve.
   Minimum no.        1 and maximum no.       11 iterations per solve
   Loop no.      170   Time =    1.5800 sec.
 time step number          170  t=   1.5900000000000003     
 An average of     7.03 GMRES iterations done per solve.
   Minimum no.        1 and maximum no.       11 iterations per solve
   Loop no.      180   Time =    1.6800 sec.
 time step number          180  t=   1.6900000000000002     
 An average of     7.07 GMRES iterations done per solve.
   Minimum no.        1 and maximum no.       11 iterations per solve
   Loop no.      190   Time =    1.7800 sec.
 time step number          190  t=   1.7900000000000000     
 An average of     7.12 GMRES iterations done per solve.
   Minimum no.        1 and maximum no.       11 iterations per solve
oceanWave3D: Time = 1.8 s.
oceanWave3D: deltaT = 0.01 s.

oceanWave3D: Time = 1.81 s.
oceanWave3D: deltaT = 0.01 s.

oceanWave3D: Time = 1.82 s.
oceanWave3D: deltaT = 0.01 s.

oceanWave3D: Time = 1.83 s.
oceanWave3D: deltaT = 0.01 s.

oceanWave3D: Time = 1.84 s.
oceanWave3D: deltaT = 0.01 s.

oceanWave3D: Time = 1.85 s.
oceanWave3D: deltaT = 0.01 s.

oceanWave3D: Time = 1.86 s.
oceanWave3D: deltaT = 0.01 s.

oceanWave3D: Time = 1.87 s.
oceanWave3D: deltaT = 0.01 s.

oceanWave3D: Time = 1.88 s.
oceanWave3D: deltaT = 0.01 s.

oceanWave3D: Time = 1.89 s.
oceanWave3D: deltaT = 0.01 s.

oceanWave3D: Time = 1.9 s.
oceanWave3D: deltaT = 0.01 s.

oceanWave3D: Time = 1.91 s.
oceanWave3D: deltaT = 0.01 s.

oceanWave3D: Time = 1.92 s.
oceanWave3D: deltaT = 0.01 s.

oceanWave3D: Time = 1.93 s.
oceanWave3D: deltaT = 0.01 s.

oceanWave3D: Time = 1.94 s.
oceanWave3D: deltaT = 0.01 s.

oceanWave3D: Time = 1.95 s.
oceanWave3D: deltaT = 0.01 s.

oceanWave3D: Time = 1.96 s.
oceanWave3D: deltaT = 0.01 s.

oceanWave3D: Time = 1.97 s.
oceanWave3D: deltaT = 0.01 s.

oceanWave3D: Time = 1.98 s.
oceanWave3D: deltaT = 0.01 s.

oceanWave3D: Time = 1.99 s.
oceanWave3D: deltaT = 0.01 s.

oceanWave3D: Time = 2 s.
oceanWave3D: deltaT = 0.01 s.

oceanWave3D: Time = 2.00952 s.
oceanWave3D: deltaT = 0.00952381 s.

oceanWave3D: Time = 2.01905 s.
oceanWave3D: deltaT = 0.00952381 s.

oceanWave3D: Time = 2.02857 s.
oceanWave3D: deltaT = 0.00952381 s.

oceanWave3D: Time = 2.0381 s.
oceanWave3D: deltaT = 0.00952381 s.

oceanWave3D: Time = 2.04762 s.
oceanWave3D: deltaT = 0.00952381 s.

oceanWave3D: Time = 2.05714 s.
oceanWave3D: deltaT = 0.00952381 s.

oceanWave3D: Time = 2.06667 s.
oceanWave3D: deltaT = 0.00952381 s.

oceanWave3D: Time = 2.07619 s.
oceanWave3D: deltaT = 0.00952381 s.

oceanWave3D: Time = 2.08571 s.
oceanWave3D: deltaT = 0.00952381 s.

oceanWave3D: Time = 2.09524 s.
oceanWave3D: deltaT = 0.00952381 s.

oceanWave3D: Time = 2.10476 s.
oceanWave3D: deltaT = 0.00952381 s.

oceanWave3D: Time = 2.11429 s.
oceanWave3D: deltaT = 0.00952381 s.

oceanWave3D: Time = 2.12381 s.
oceanWave3D: deltaT = 0.00952381 s.

oceanWave3D: Time = 2.13333 s.
oceanWave3D: deltaT = 0.00952381 s.

oceanWave3D: Time = 2.14286 s.
oceanWave3D: deltaT = 0.00952381 s.

oceanWave3D: Time = 2.15238 s.
oceanWave3D: deltaT = 0.00952381 s.

oceanWave3D: Time = 2.1619 s.
oceanWave3D: deltaT = 0.00952381 s.

oceanWave3D: Time = 2.17143 s.
oceanWave3D: deltaT = 0.00952381 s.

oceanWave3D: Time = 2.18095 s.
oceanWave3D: deltaT = 0.00952381 s.

oceanWave3D: Time = 2.19048 s.
oceanWave3D: deltaT = 0.00952381 s.

oceanWave3D: Time = 2.2 s.
oceanWave3D: deltaT = 0.00952381 s.

oceanWave3D: Time = 2.20952 s.
oceanWave3D: deltaT = 0.00952381 s.

oceanWave3D: Time = 2.21905 s.
oceanWave3D: deltaT = 0.00952381 s.

oceanWave3D: Time = 2.22857 s.
oceanWave3D: deltaT = 0.00952381 s.

oceanWave3D: Time = 2.2381 s.
oceanWave3D: deltaT = 0.00952381 s.

oceanWave3D: Time = 2.24762 s.
oceanWave3D: deltaT = 0.00952381 s.

oceanWave3D: Time = 2.25714 s.
oceanWave3D: deltaT = 0.00952381 s.

oceanWave3D: Time = 2.26667 s.
oceanWave3D: deltaT = 0.00952381 s.

oceanWave3D: Time = 2.27619 s.
oceanWave3D: deltaT = 0.00952381 s.

oceanWave3D: Time = 2.28571 s.
oceanWave3D: deltaT = 0.00952381 s.

oceanWave3D: Time = 2.29524 s.
oceanWave3D: deltaT = 0.00952381 s.

oceanWave3D: Time = 2.30476 s.
oceanWave3D: deltaT = 0.00952381 s.

oceanWave3D: Time = 2.31429 s.
oceanWave3D: deltaT = 0.00952381 s.

oceanWave3D: Time = 2.32381 s.
oceanWave3D: deltaT = 0.00952381 s.

oceanWave3D: Time = 2.33333 s.
oceanWave3D: deltaT = 0.00952381 s.

oceanWave3D: Time = 2.34286 s.
oceanWave3D: deltaT = 0.00952381 s.

oceanWave3D: Time = 2.35238 s.
oceanWave3D: deltaT = 0.00952381 s.

oceanWave3D: Time = 2.3619 s.
oceanWave3D: deltaT = 0.00952381 s.

oceanWave3D: Time = 2.37143 s.
oceanWave3D: deltaT = 0.00952381 s.

oceanWave3D: Time = 2.38095 s.
oceanWave3D: deltaT = 0.00952381 s.

oceanWave3D: Time = 2.39048 s.
oceanWave3D: deltaT = 0.00952381 s.

oceanWave3D: Time = 2.4 s.
oceanWave3D: deltaT = 0.00952381 s.

oceanWave3D: Time = 2.41 s.
oceanWave3D: deltaT = 0.01 s.

oceanWave3D: Time = 2.42 s.
oceanWave3D: deltaT = 0.01 s.

oceanWave3D: Time = 2.42947 s.
oceanWave3D: deltaT = 0.00947368 s.

oceanWave3D: Time = 2.43895 s.
oceanWave3D: deltaT = 0.00947368 s.

oceanWave3D: Time = 2.44842 s.
oceanWave3D: deltaT = 0.00947368 s.

oceanWave3D: Time = 2.45789 s.
oceanWave3D: deltaT = 0.00947368 s.

oceanWave3D: Time = 2.46737 s.
oceanWave3D: deltaT = 0.00947368 s.

oceanWave3D: Time = 2.47684 s.
oceanWave3D: deltaT = 0.00947368 s.

oceanWave3D: Time = 2.48632 s.
oceanWave3D: deltaT = 0.00947368 s.

oceanWave3D: Time = 2.49579 s.
oceanWave3D: deltaT = 0.00947368 s.

oceanWave3D: Time = 2.50526 s.
oceanWave3D: deltaT = 0.00947368 s.

oceanWave3D: Time = 2.51474 s.
oceanWave3D: deltaT = 0.00947368 s.

oceanWave3D: Time = 2.52421 s.
oceanWave3D: deltaT = 0.00947368 s.

oceanWave3D: Time = 2.53368 s.
oceanWave3D: deltaT = 0.00947368 s.

oceanWave3D: Time = 2.54316 s.
oceanWave3D: deltaT = 0.00947368 s.

oceanWave3D: Time = 2.55263 s.
oceanWave3D: deltaT = 0.00947368 s.

oceanWave3D: Time = 2.56211 s.
oceanWave3D: deltaT = 0.00947368 s.

oceanWave3D: Time = 2.57158 s.
oceanWave3D: deltaT = 0.00947368 s.

oceanWave3D: Time = 2.58105 s.
oceanWave3D: deltaT = 0.00947368 s.

oceanWave3D: Time = 2.59053 s.
oceanWave3D: deltaT = 0.00947368 s.

oceanWave3D: Time = 2.6 s.
oceanWave3D: deltaT = 0.00947368 s.

oceanWave3D: Time = 2.60952 s.
oceanWave3D: deltaT = 0.00952381 s.

oceanWave3D: Time = 2.61905 s.
oceanWave3D: deltaT = 0.00952381 s.

oceanWave3D: Time = 2.62857 s.
oceanWave3D: deltaT = 0.00952381 s.

oceanWave3D: Time = 2.6381 s.
oceanWave3D: deltaT = 0.00952381 s.

oceanWave3D: Time = 2.64762 s.
oceanWave3D: deltaT = 0.00952381 s.

oceanWave3D: Time = 2.65714 s.
oceanWave3D: deltaT = 0.00952381 s.

oceanWave3D: Time = 2.66667 s.
oceanWave3D: deltaT = 0.00952381 s.

oceanWave3D: Time = 2.67619 s.
oceanWave3D: deltaT = 0.00952381 s.

oceanWave3D: Time = 2.68571 s.
oceanWave3D: deltaT = 0.00952381 s.

oceanWave3D: Time = 2.69524 s.
oceanWave3D: deltaT = 0.00952381 s.

oceanWave3D: Time = 2.70476 s.
oceanWave3D: deltaT = 0.00952381 s.

oceanWave3D: Time = 2.71429 s.
oceanWave3D: deltaT = 0.00952381 s.

oceanWave3D: Time = 2.72381 s.
oceanWave3D: deltaT = 0.00952381 s.

oceanWave3D: Time = 2.73333 s.
oceanWave3D: deltaT = 0.00952381 s.

oceanWave3D: Time = 2.74286 s.
oceanWave3D: deltaT = 0.00952381 s.

oceanWave3D: Time = 2.75238 s.
oceanWave3D: deltaT = 0.00952381 s.

oceanWave3D: Time = 2.7619 s.
oceanWave3D: deltaT = 0.00952381 s.

oceanWave3D: Time = 2.77143 s.
oceanWave3D: deltaT = 0.00952381 s.

oceanWave3D: Time = 2.78095 s.
oceanWave3D: deltaT = 0.00952381 s.

oceanWave3D: Time = 2.79048 s.
oceanWave3D: deltaT = 0.00952381 s.

oceanWave3D: Time = 2.8 s.
oceanWave3D: deltaT = 0.00952381 s.

oceanWave3D: Time = 2.81 s.
oceanWave3D: deltaT = 0.01 s.

oceanWave3D: Time = 2.82 s.
oceanWave3D: deltaT = 0.01 s.

oceanWave3D: Time = 2.82947 s.
oceanWave3D: deltaT = 0.00947368 s.

oceanWave3D: Time = 2.83895 s.
oceanWave3D: deltaT = 0.00947368 s.

oceanWave3D: Time = 2.84842 s.
oceanWave3D: deltaT = 0.00947368 s.

oceanWave3D: Time = 2.85789 s.
oceanWave3D: deltaT = 0.00947368 s.

oceanWave3D: Time = 2.86737 s.
oceanWave3D: deltaT = 0.00947368 s.

oceanWave3D: Time = 2.87684 s.
oceanWave3D: deltaT = 0.00947368 s.

oceanWave3D: Time = 2.88632 s.
oceanWave3D: deltaT = 0.00947368 s.

oceanWave3D: Time = 2.89579 s.
oceanWave3D: deltaT = 0.00947368 s.

oceanWave3D: Time = 2.90526 s.
oceanWave3D: deltaT = 0.00947368 s.

oceanWave3D: Time = 2.91474 s.
oceanWave3D: deltaT = 0.00947368 s.

oceanWave3D: Time = 2.92421 s.
oceanWave3D: deltaT = 0.00947368 s.

oceanWave3D: Time = 2.93368 s.
oceanWave3D: deltaT = 0.00947368 s.

oceanWave3D: Time = 2.94316 s.
oceanWave3D: deltaT = 0.00947368 s.

oceanWave3D: Time = 2.95263 s.
oceanWave3D: deltaT = 0.00947368 s.

oceanWave3D: Time = 2.96211 s.
oceanWave3D: deltaT = 0.00947368 s.

oceanWave3D: Time = 2.97158 s.
oceanWave3D: deltaT = 0.00947368 s.

oceanWave3D: Time = 2.98105 s.
oceanWave3D: deltaT = 0.00947368 s.

oceanWave3D: Time = 2.99053 s.
oceanWave3D: deltaT = 0.00947368 s.

oceanWave3D: Time = 3 s.
oceanWave3D: deltaT = 0.00947368 s.

oceanWave3D: Time = 3.00952 s.
oceanWave3D: deltaT = 0.00952381 s.

oceanWave3D: Time = 3.01905 s.
oceanWave3D: deltaT = 0.00952381 s.

oceanWave3D: Time = 3.02857 s.
oceanWave3D: deltaT = 0.00952381 s.

oceanWave3D: Time = 3.0381 s.
oceanWave3D: deltaT = 0.00952381 s.

oceanWave3D: Time = 3.04762 s.
oceanWave3D: deltaT = 0.00952381 s.

oceanWave3D: Time = 3.05714 s.
oceanWave3D: deltaT = 0.00952381 s.

oceanWave3D: Time = 3.06667 s.
oceanWave3D: deltaT = 0.00952381 s.

oceanWave3D: Time = 3.07619 s.
oceanWave3D: deltaT = 0.00952381 s.

oceanWave3D: Time = 3.08571 s.
oceanWave3D: deltaT = 0.00952381 s.

oceanWave3D: Time = 3.09524 s.
oceanWave3D: deltaT = 0.00952381 s.

oceanWave3D: Time = 3.10476 s.
oceanWave3D: deltaT = 0.00952381 s.

oceanWave3D: Time = 3.11429 s.
oceanWave3D: deltaT = 0.00952381 s.

oceanWave3D: Time = 3.12381 s.
oceanWave3D: deltaT = 0.00952381 s.

oceanWave3D: Time = 3.13333 s.
oceanWave3D: deltaT = 0.00952381 s.

oceanWave3D: Time = 3.14286 s.
oceanWave3D: deltaT = 0.00952381 s.

oceanWave3D: Time = 3.15238 s.
oceanWave3D: deltaT = 0.00952381 s.

oceanWave3D: Time = 3.1619 s.
oceanWave3D: deltaT = 0.00952381 s.

oceanWave3D: Time = 3.17143 s.
oceanWave3D: deltaT = 0.00952381 s.

oceanWave3D: Time = 3.18095 s.
oceanWave3D: deltaT = 0.00952381 s.

oceanWave3D: Time = 3.19048 s.
oceanWave3D: deltaT = 0.00952381 s.

oceanWave3D: Time = 3.2 s.
oceanWave3D: deltaT = 0.00952381 s.

oceanWave3D: Time = 3.20952 s.
oceanWave3D: deltaT = 0.00952381 s.

oceanWave3D: Time = 3.21905 s.
oceanWave3D: deltaT = 0.00952381 s.

oceanWave3D: Time = 3.22857 s.
oceanWave3D: deltaT = 0.00952381 s.

oceanWave3D: Time = 3.2381 s.
oceanWave3D: deltaT = 0.00952381 s.

oceanWave3D: Time = 3.24762 s.
oceanWave3D: deltaT = 0.00952381 s.

oceanWave3D: Time = 3.25714 s.
oceanWave3D: deltaT = 0.00952381 s.

oceanWave3D: Time = 3.26667 s.
oceanWave3D: deltaT = 0.00952381 s.

oceanWave3D: Time = 3.27619 s.
oceanWave3D: deltaT = 0.00952381 s.

oceanWave3D: Time = 3.28571 s.
oceanWave3D: deltaT = 0.00952381 s.

oceanWave3D: Time = 3.29524 s.
oceanWave3D: deltaT = 0.00952381 s.

oceanWave3D: Time = 3.30476 s.
oceanWave3D: deltaT = 0.00952381 s.

oceanWave3D: Time = 3.31429 s.
oceanWave3D: deltaT = 0.00952381 s.

oceanWave3D: Time = 3.32381 s.
oceanWave3D: deltaT = 0.00952381 s.

oceanWave3D: Time = 3.33333 s.
oceanWave3D: deltaT = 0.00952381 s.

oceanWave3D: Time = 3.34286 s.
oceanWave3D: deltaT = 0.00952381 s.

oceanWave3D: Time = 3.35238 s.
oceanWave3D: deltaT = 0.00952381 s.

oceanWave3D: Time = 3.3619 s.
oceanWave3D: deltaT = 0.00952381 s.

oceanWave3D: Time = 3.37143 s.
oceanWave3D: deltaT = 0.00952381 s.

oceanWave3D: Time = 3.38095 s.
oceanWave3D: deltaT = 0.00952381 s.

oceanWave3D: Time = 3.39048 s.
oceanWave3D: deltaT = 0.00952381 s.

oceanWave3D: Time = 3.4 s.
oceanWave3D: deltaT = 0.00952381 s.

oceanWave3D: Time = 3.41 s.
oceanWave3D: deltaT = 0.01 s.

oceanWave3D: Time = 3.42 s.
oceanWave3D: deltaT = 0.01 s.

oceanWave3D: Time = 3.42947 s.
oceanWave3D: deltaT = 0.00947368 s.

oceanWave3D: Time = 3.43895 s.
oceanWave3D: deltaT = 0.00947368 s.

oceanWave3D: Time = 3.44842 s.
oceanWave3D: deltaT = 0.00947368 s.

oceanWave3D: Time = 3.45789 s.
oceanWave3D: deltaT = 0.00947368 s.

oceanWave3D: Time = 3.46737 s.
oceanWave3D: deltaT = 0.00947368 s.

oceanWave3D: Time = 3.47684 s.
oceanWave3D: deltaT = 0.00947368 s.

oceanWave3D: Time = 3.48632 s.
oceanWave3D: deltaT = 0.00947368 s.

oceanWave3D: Time = 3.49579 s.
oceanWave3D: deltaT = 0.00947368 s.

oceanWave3D: Time = 3.50526 s.
oceanWave3D: deltaT = 0.00947368 s.

oceanWave3D: Time = 3.51474 s.
oceanWave3D: deltaT = 0.00947368 s.

   Loop no.      200   Time =    1.8800 sec.
 time step number          200  t=   1.8900000000000001     
 An average of     7.16 GMRES iterations done per solve.
   Minimum no.        1 and maximum no.       11 iterations per solve
   Loop no.      210   Time =    1.9800 sec.
 time step number          210  t=   1.9900000000000002     
 An average of     7.22 GMRES iterations done per solve.
   Minimum no.        1 and maximum no.       11 iterations per solve
   Loop no.      220   Time =    2.0762 sec.
 time step number          220  t=   2.0857142857142854     
 An average of     7.28 GMRES iterations done per solve.
   Minimum no.        1 and maximum no.       12 iterations per solve
   Loop no.      230   Time =    2.1714 sec.
 time step number          230  t=   2.1809523809523808     
 An average of     7.36 GMRES iterations done per solve.
   Minimum no.        1 and maximum no.       12 iterations per solve
   Loop no.      240   Time =    2.2667 sec.
 time step number          240  t=   2.2761904761904761     
 An average of     7.43 GMRES iterations done per solve.
   Minimum no.        1 and maximum no.       12 iterations per solve
   Loop no.      250   Time =    2.3619 sec.
 time step number          250  t=   2.3714285714285710     
 An average of     7.49 GMRES iterations done per solve.
   Minimum no.        1 and maximum no.       12 iterations per solve
   Loop no.      260   Time =    2.4579 sec.
 time step number          260  t=   2.4673684210526314     
 An average of     7.52 GMRES iterations done per solve.
   Minimum no.        1 and maximum no.       12 iterations per solve
   Loop no.      270   Time =    2.5526 sec.
 time step number          270  t=   2.5621052631578944     
 An average of     7.54 GMRES iterations done per solve.
   Minimum no.        1 and maximum no.       12 iterations per solve
   Loop no.      280   Time =    2.6476 sec.
 time step number          280  t=   2.6571428571428570     
 An average of     7.57 GMRES iterations done per solve.
   Minimum no.        1 and maximum no.       12 iterations per solve
   Loop no.      290   Time =    2.7429 sec.
 time step number          290  t=   2.7523809523809519     
 An average of     7.61 GMRES iterations done per solve.
   Minimum no.        1 and maximum no.       12 iterations per solve
   Loop no.      300   Time =    2.8389 sec.
 time step number          300  t=   2.8484210526315787     
 An average of     7.65 GMRES iterations done per solve.
   Minimum no.        1 and maximum no.       12 iterations per solve
   Loop no.      310   Time =    2.9337 sec.
 time step number          310  t=   2.9431578947368418     
 An average of     7.70 GMRES iterations done per solve.
   Minimum no.        1 and maximum no.       12 iterations per solve
   Loop no.      320   Time =    3.0286 sec.
 time step number          320  t=   3.0380952380952380     
 An average of     7.75 GMRES iterations done per solve.
   Minimum no.        1 and maximum no.       12 iterations per solve
   Loop no.      330   Time =    3.1238 sec.
 time step number          330  t=   3.1333333333333329     
 An average of     7.80 GMRES iterations done per solve.
   Minimum no.        1 and maximum no.       12 iterations per solve
   Loop no.      340   Time =    3.2190 sec.
 time step number          340  t=   3.2285714285714286     
 An average of     7.84 GMRES iterations done per solve.
   Minimum no.        1 and maximum no.       12 iterations per solve
   Loop no.      350   Time =    3.3143 sec.
 time step number          350  t=   3.3238095238095235     
 An average of     7.88 GMRES iterations done per solve.
   Minimum no.        1 and maximum no.       12 iterations per solve
   Loop no.      360   Time =    3.4100 sec.
 time step number          360  t=   3.4199999999999999     
 An average of     7.91 GMRES iterations done per solve.
   Minimum no.        1 and maximum no.       12 iterations per solve
   Loop no.      370   Time =    3.5053 sec.
 time step number          370  t=   3.5147368421052629     
 An average of     7.94 GMRES iterations done per solve.
oceanWave3D: Time = 3.52421 s.
oceanWave3D: deltaT = 0.00947368 s.

oceanWave3D: Time = 3.53368 s.
oceanWave3D: deltaT = 0.00947368 s.

oceanWave3D: Time = 3.54316 s.
oceanWave3D: deltaT = 0.00947368 s.

oceanWave3D: Time = 3.55263 s.
oceanWave3D: deltaT = 0.00947368 s.

oceanWave3D: Time = 3.56211 s.
oceanWave3D: deltaT = 0.00947368 s.

oceanWave3D: Time = 3.57158 s.
oceanWave3D: deltaT = 0.00947368 s.

oceanWave3D: Time = 3.58105 s.
oceanWave3D: deltaT = 0.00947368 s.

oceanWave3D: Time = 3.59053 s.
oceanWave3D: deltaT = 0.00947368 s.

oceanWave3D: Time = 3.6 s.
oceanWave3D: deltaT = 0.00947368 s.

oceanWave3D: Time = 3.60952 s.
oceanWave3D: deltaT = 0.00952381 s.

oceanWave3D: Time = 3.61905 s.
oceanWave3D: deltaT = 0.00952381 s.

oceanWave3D: Time = 3.62857 s.
oceanWave3D: deltaT = 0.00952381 s.

oceanWave3D: Time = 3.6381 s.
oceanWave3D: deltaT = 0.00952381 s.

oceanWave3D: Time = 3.64762 s.
oceanWave3D: deltaT = 0.00952381 s.

oceanWave3D: Time = 3.65714 s.
oceanWave3D: deltaT = 0.00952381 s.

oceanWave3D: Time = 3.66667 s.
oceanWave3D: deltaT = 0.00952381 s.

oceanWave3D: Time = 3.67619 s.
oceanWave3D: deltaT = 0.00952381 s.

oceanWave3D: Time = 3.68571 s.
oceanWave3D: deltaT = 0.00952381 s.

oceanWave3D: Time = 3.69524 s.
oceanWave3D: deltaT = 0.00952381 s.

oceanWave3D: Time = 3.70476 s.
oceanWave3D: deltaT = 0.00952381 s.

oceanWave3D: Time = 3.71429 s.
oceanWave3D: deltaT = 0.00952381 s.

oceanWave3D: Time = 3.72381 s.
oceanWave3D: deltaT = 0.00952381 s.

oceanWave3D: Time = 3.73333 s.
oceanWave3D: deltaT = 0.00952381 s.

oceanWave3D: Time = 3.74286 s.
oceanWave3D: deltaT = 0.00952381 s.

oceanWave3D: Time = 3.75238 s.
oceanWave3D: deltaT = 0.00952381 s.

oceanWave3D: Time = 3.7619 s.
oceanWave3D: deltaT = 0.00952381 s.

oceanWave3D: Time = 3.77143 s.
oceanWave3D: deltaT = 0.00952381 s.

oceanWave3D: Time = 3.78095 s.
oceanWave3D: deltaT = 0.00952381 s.

oceanWave3D: Time = 3.79048 s.
oceanWave3D: deltaT = 0.00952381 s.

oceanWave3D: Time = 3.8 s.
oceanWave3D: deltaT = 0.00952381 s.

oceanWave3D: Time = 3.81 s.
oceanWave3D: deltaT = 0.01 s.

oceanWave3D: Time = 3.82 s.
oceanWave3D: deltaT = 0.01 s.

oceanWave3D: Time = 3.82947 s.
oceanWave3D: deltaT = 0.00947368 s.

oceanWave3D: Time = 3.83895 s.
oceanWave3D: deltaT = 0.00947368 s.

oceanWave3D: Time = 3.84842 s.
oceanWave3D: deltaT = 0.00947368 s.

oceanWave3D: Time = 3.85789 s.
oceanWave3D: deltaT = 0.00947368 s.

oceanWave3D: Time = 3.86737 s.
oceanWave3D: deltaT = 0.00947368 s.

oceanWave3D: Time = 3.87684 s.
oceanWave3D: deltaT = 0.00947368 s.

oceanWave3D: Time = 3.88632 s.
oceanWave3D: deltaT = 0.00947368 s.

oceanWave3D: Time = 3.89579 s.
oceanWave3D: deltaT = 0.00947368 s.

oceanWave3D: Time = 3.90526 s.
oceanWave3D: deltaT = 0.00947368 s.

oceanWave3D: Time = 3.91474 s.
oceanWave3D: deltaT = 0.00947368 s.

oceanWave3D: Time = 3.92421 s.
oceanWave3D: deltaT = 0.00947368 s.

oceanWave3D: Time = 3.93368 s.
oceanWave3D: deltaT = 0.00947368 s.

oceanWave3D: Time = 3.94316 s.
oceanWave3D: deltaT = 0.00947368 s.

oceanWave3D: Time = 3.95263 s.
oceanWave3D: deltaT = 0.00947368 s.

oceanWave3D: Time = 3.96211 s.
oceanWave3D: deltaT = 0.00947368 s.

oceanWave3D: Time = 3.97158 s.
oceanWave3D: deltaT = 0.00947368 s.

oceanWave3D: Time = 3.98105 s.
oceanWave3D: deltaT = 0.00947368 s.

oceanWave3D: Time = 3.99053 s.
oceanWave3D: deltaT = 0.00947368 s.

oceanWave3D: Time = 4 s.
oceanWave3D: deltaT = 0.00947368 s.

oceanWave3D: Time = 4.00952 s.
oceanWave3D: deltaT = 0.00952381 s.

oceanWave3D: Time = 4.01905 s.
oceanWave3D: deltaT = 0.00952381 s.

oceanWave3D: Time = 4.02857 s.
oceanWave3D: deltaT = 0.00952381 s.

oceanWave3D: Time = 4.0381 s.
oceanWave3D: deltaT = 0.00952381 s.

oceanWave3D: Time = 4.04762 s.
oceanWave3D: deltaT = 0.00952381 s.

oceanWave3D: Time = 4.05714 s.
oceanWave3D: deltaT = 0.00952381 s.

oceanWave3D: Time = 4.06667 s.
oceanWave3D: deltaT = 0.00952381 s.

oceanWave3D: Time = 4.07619 s.
oceanWave3D: deltaT = 0.00952381 s.

oceanWave3D: Time = 4.08571 s.
oceanWave3D: deltaT = 0.00952381 s.

oceanWave3D: Time = 4.09524 s.
oceanWave3D: deltaT = 0.00952381 s.

oceanWave3D: Time = 4.10476 s.
oceanWave3D: deltaT = 0.00952381 s.

oceanWave3D: Time = 4.11429 s.
oceanWave3D: deltaT = 0.00952381 s.

oceanWave3D: Time = 4.12381 s.
oceanWave3D: deltaT = 0.00952381 s.

oceanWave3D: Time = 4.13333 s.
oceanWave3D: deltaT = 0.00952381 s.

oceanWave3D: Time = 4.14286 s.
oceanWave3D: deltaT = 0.00952381 s.

oceanWave3D: Time = 4.15238 s.
oceanWave3D: deltaT = 0.00952381 s.

oceanWave3D: Time = 4.1619 s.
oceanWave3D: deltaT = 0.00952381 s.

oceanWave3D: Time = 4.17143 s.
oceanWave3D: deltaT = 0.00952381 s.

oceanWave3D: Time = 4.18095 s.
oceanWave3D: deltaT = 0.00952381 s.

oceanWave3D: Time = 4.19048 s.
oceanWave3D: deltaT = 0.00952381 s.

oceanWave3D: Time = 4.2 s.
oceanWave3D: deltaT = 0.00952381 s.

oceanWave3D: Time = 4.20952 s.
oceanWave3D: deltaT = 0.00952381 s.

oceanWave3D: Time = 4.21905 s.
oceanWave3D: deltaT = 0.00952381 s.

oceanWave3D: Time = 4.22857 s.
oceanWave3D: deltaT = 0.00952381 s.

oceanWave3D: Time = 4.2381 s.
oceanWave3D: deltaT = 0.00952381 s.

oceanWave3D: Time = 4.24762 s.
oceanWave3D: deltaT = 0.00952381 s.

oceanWave3D: Time = 4.25714 s.
oceanWave3D: deltaT = 0.00952381 s.

oceanWave3D: Time = 4.26667 s.
oceanWave3D: deltaT = 0.00952381 s.

oceanWave3D: Time = 4.27619 s.
oceanWave3D: deltaT = 0.00952381 s.

oceanWave3D: Time = 4.28571 s.
oceanWave3D: deltaT = 0.00952381 s.

oceanWave3D: Time = 4.29524 s.
oceanWave3D: deltaT = 0.00952381 s.

oceanWave3D: Time = 4.30476 s.
oceanWave3D: deltaT = 0.00952381 s.

oceanWave3D: Time = 4.31429 s.
oceanWave3D: deltaT = 0.00952381 s.

oceanWave3D: Time = 4.32381 s.
oceanWave3D: deltaT = 0.00952381 s.

oceanWave3D: Time = 4.33333 s.
oceanWave3D: deltaT = 0.00952381 s.

oceanWave3D: Time = 4.34286 s.
oceanWave3D: deltaT = 0.00952381 s.

oceanWave3D: Time = 4.35238 s.
oceanWave3D: deltaT = 0.00952381 s.

oceanWave3D: Time = 4.3619 s.
oceanWave3D: deltaT = 0.00952381 s.

oceanWave3D: Time = 4.37143 s.
oceanWave3D: deltaT = 0.00952381 s.

oceanWave3D: Time = 4.38095 s.
oceanWave3D: deltaT = 0.00952381 s.

oceanWave3D: Time = 4.39048 s.
oceanWave3D: deltaT = 0.00952381 s.

oceanWave3D: Time = 4.4 s.
oceanWave3D: deltaT = 0.00952381 s.

oceanWave3D: Time = 4.40952 s.
oceanWave3D: deltaT = 0.00952381 s.

oceanWave3D: Time = 4.41905 s.
oceanWave3D: deltaT = 0.00952381 s.

oceanWave3D: Time = 4.42857 s.
oceanWave3D: deltaT = 0.00952381 s.

oceanWave3D: Time = 4.4381 s.
oceanWave3D: deltaT = 0.00952381 s.

oceanWave3D: Time = 4.44762 s.
oceanWave3D: deltaT = 0.00952381 s.

oceanWave3D: Time = 4.45714 s.
oceanWave3D: deltaT = 0.00952381 s.

oceanWave3D: Time = 4.46667 s.
oceanWave3D: deltaT = 0.00952381 s.

oceanWave3D: Time = 4.47619 s.
oceanWave3D: deltaT = 0.00952381 s.

oceanWave3D: Time = 4.48571 s.
oceanWave3D: deltaT = 0.00952381 s.

oceanWave3D: Time = 4.49524 s.
oceanWave3D: deltaT = 0.00952381 s.

oceanWave3D: Time = 4.50476 s.
oceanWave3D: deltaT = 0.00952381 s.

oceanWave3D: Time = 4.51429 s.
oceanWave3D: deltaT = 0.00952381 s.

oceanWave3D: Time = 4.52381 s.
oceanWave3D: deltaT = 0.00952381 s.

oceanWave3D: Time = 4.53333 s.
oceanWave3D: deltaT = 0.00952381 s.

oceanWave3D: Time = 4.54286 s.
oceanWave3D: deltaT = 0.00952381 s.

oceanWave3D: Time = 4.55238 s.
oceanWave3D: deltaT = 0.00952381 s.

oceanWave3D: Time = 4.5619 s.
oceanWave3D: deltaT = 0.00952381 s.

oceanWave3D: Time = 4.57143 s.
oceanWave3D: deltaT = 0.00952381 s.

oceanWave3D: Time = 4.58095 s.
oceanWave3D: deltaT = 0.00952381 s.

oceanWave3D: Time = 4.59048 s.
oceanWave3D: deltaT = 0.00952381 s.

oceanWave3D: Time = 4.6 s.
oceanWave3D: deltaT = 0.00952381 s.

oceanWave3D: Time = 4.60952 s.
oceanWave3D: deltaT = 0.00952381 s.

oceanWave3D: Time = 4.61905 s.
oceanWave3D: deltaT = 0.00952381 s.

oceanWave3D: Time = 4.62857 s.
oceanWave3D: deltaT = 0.00952381 s.

oceanWave3D: Time = 4.6381 s.
oceanWave3D: deltaT = 0.00952381 s.

oceanWave3D: Time = 4.64762 s.
oceanWave3D: deltaT = 0.00952381 s.

oceanWave3D: Time = 4.65714 s.
oceanWave3D: deltaT = 0.00952381 s.

oceanWave3D: Time = 4.66667 s.
oceanWave3D: deltaT = 0.00952381 s.

oceanWave3D: Time = 4.67619 s.
oceanWave3D: deltaT = 0.00952381 s.

oceanWave3D: Time = 4.68571 s.
oceanWave3D: deltaT = 0.00952381 s.

oceanWave3D: Time = 4.69524 s.
oceanWave3D: deltaT = 0.00952381 s.

oceanWave3D: Time = 4.70476 s.
oceanWave3D: deltaT = 0.00952381 s.

oceanWave3D: Time = 4.71429 s.
oceanWave3D: deltaT = 0.00952381 s.

oceanWave3D: Time = 4.72381 s.
oceanWave3D: deltaT = 0.00952381 s.

oceanWave3D: Time = 4.73333 s.
oceanWave3D: deltaT = 0.00952381 s.

oceanWave3D: Time = 4.74286 s.
oceanWave3D: deltaT = 0.00952381 s.

oceanWave3D: Time = 4.75238 s.
oceanWave3D: deltaT = 0.00952381 s.

oceanWave3D: Time = 4.7619 s.
oceanWave3D: deltaT = 0.00952381 s.

oceanWave3D: Time = 4.77143 s.
oceanWave3D: deltaT = 0.00952381 s.

oceanWave3D: Time = 4.78095 s.
oceanWave3D: deltaT = 0.00952381 s.

oceanWave3D: Time = 4.79048 s.
oceanWave3D: deltaT = 0.00952381 s.

oceanWave3D: Time = 4.8 s.
oceanWave3D: deltaT = 0.00952381 s.

oceanWave3D: Time = 4.81 s.
oceanWave3D: deltaT = 0.01 s.

oceanWave3D: Time = 4.82 s.
oceanWave3D: deltaT = 0.01 s.

oceanWave3D: Time = 4.83 s.
oceanWave3D: deltaT = 0.01 s.

oceanWave3D: Time = 4.84 s.
oceanWave3D: deltaT = 0.01 s.

oceanWave3D: Time = 4.84941 s.
oceanWave3D: deltaT = 0.00941176 s.

oceanWave3D: Time = 4.85882 s.
oceanWave3D: deltaT = 0.00941176 s.

oceanWave3D: Time = 4.86824 s.
oceanWave3D: deltaT = 0.00941176 s.

oceanWave3D: Time = 4.87765 s.
oceanWave3D: deltaT = 0.00941176 s.

oceanWave3D: Time = 4.88706 s.
oceanWave3D: deltaT = 0.00941176 s.

oceanWave3D: Time = 4.89647 s.
oceanWave3D: deltaT = 0.00941176 s.

oceanWave3D: Time = 4.90588 s.
oceanWave3D: deltaT = 0.00941176 s.

oceanWave3D: Time = 4.91529 s.
oceanWave3D: deltaT = 0.00941176 s.

oceanWave3D: Time = 4.92471 s.
oceanWave3D: deltaT = 0.00941176 s.

oceanWave3D: Time = 4.93412 s.
oceanWave3D: deltaT = 0.00941176 s.

oceanWave3D: Time = 4.94353 s.
oceanWave3D: deltaT = 0.00941176 s.

oceanWave3D: Time = 4.95294 s.
oceanWave3D: deltaT = 0.00941176 s.

oceanWave3D: Time = 4.96235 s.
oceanWave3D: deltaT = 0.00941176 s.

oceanWave3D: Time = 4.97176 s.
oceanWave3D: deltaT = 0.00941176 s.

oceanWave3D: Time = 4.98118 s.
oceanWave3D: deltaT = 0.00941176 s.

oceanWave3D: Time = 4.99059 s.
oceanWave3D: deltaT = 0.00941176 s.

oceanWave3D: Time = 5 s.
oceanWave3D: deltaT = 0.00941176 s.

Mapping the OceanWave3D solution to the OpenFoam domain
Applied ramping factor: 1

GAMG:  Solving for pcorr, Initial residual = 1, Final residual = 9.60637e-08, No Iterations 20
GAMG:  Solving for pcorr, Initial residual = 9.64308e-09, Final residual = 9.64308e-09, No Iterations 0
Courant Number mean: 0.00943881 max: 0.113915
deltaT = 0.0111111
HALLOHALLO: 
224
(
(5.0501 0.0210997 0.05)
(5.13026 0.0273799 0.05)
(5.21042 0.0329973 0.05)
(5.29058 0.0376139 0.05)
(5.37074 0.040859 0.05)
(5.4509 0.042403 0.05)
(5.53106 0.0423988 0.05)
(5.61122 0.0408471 0.05)
(5.69138 0.0382902 0.05)
(5.77154 0.0350792 0.05)
(5.8517 0.0315548 0.05)
(5.93186 0.0279209 0.05)
(6.01202 0.0242599 0.05)
(6.09218 0.0205772 0.05)
(6.17234 0.0168355 0.05)
(6.25251 0.0130075 0.05)
(6.33267 0.00909855 0.05)
(6.41283 0.00514211 0.05)
(6.49299 0.00121107 0.05)
(6.57315 -0.00260048 0.05)
(6.65331 -0.0062049 0.05)
(6.73347 -0.00953258 0.05)
(6.81363 -0.0124619 0.05)
(6.89379 -0.0150102 0.05)
(6.97395 -0.0170755 0.05)
(7.05411 -0.0186932 0.05)
(7.13427 -0.0198519 0.05)
(7.21443 -0.0205242 0.05)
(7.29459 -0.0208001 0.05)
(7.37475 -0.0206329 0.05)
(7.45491 -0.0201162 0.05)
(7.53507 -0.0192497 0.05)
(7.61523 -0.0180722 0.05)
(7.69539 -0.0166293 0.05)
(7.77555 -0.014919 0.05)
(7.85571 -0.0130061 0.05)
(7.93587 -0.0108992 0.05)
(8.01603 -0.0086397 0.05)
(8.09619 -0.00626644 0.05)
(8.17635 -0.00381322 0.05)
(8.25651 -0.00133123 0.05)
(8.33667 0.00113121 0.05)
(8.41683 0.00352056 0.05)
(8.49699 0.00578541 0.05)
(8.57715 0.00785943 0.05)
(8.65731 0.00972108 0.05)
(8.73747 0.0112742 0.05)
(8.81764 0.0125353 0.05)
(8.8978 0.0134598 0.05)
(8.97796 0.0140357 0.05)
(9.05812 0.0142951 0.05)
(9.13828 0.0142081 0.05)
(9.21844 0.0138536 0.05)
(9.2986 0.0132412 0.05)
(9.37876 0.0124256 0.05)
(9.45892 0.0114567 0.05)
(9.53908 0.0103698 0.05)
(9.61924 0.0092193 0.05)
(9.6994 0.00804037 0.05)
(9.77956 0.00687018 0.05)
(9.85972 0.00573509 0.05)
(9.93988 0.00466314 0.05)
(10.02 0.00366341 0.05)
(10.1002 0.00275787 0.05)
(10.1804 0.00194486 0.05)
(10.2605 0.00123208 0.05)
(10.3407 0.000620712 0.05)
(10.4208 9.91123e-05 0.05)
(10.501 -0.000320606 0.05)
(10.5812 -0.000661432 0.05)
(10.6613 -0.000922022 0.05)
(10.7415 -0.00111222 0.05)
(10.8216 -0.00124308 0.05)
(10.9018 -0.00131595 0.05)
(10.982 -0.00134614 0.05)
(11.0621 -0.00133643 0.05)
(11.1423 -0.00129617 0.05)
(11.2224 -0.001232 0.05)
(11.3026 -0.0011481 0.05)
(11.3828 -0.00105175 0.05)
(11.4629 -0.000946256 0.05)
(11.5431 -0.000836183 0.05)
(11.6232 -0.000724799 0.05)
(11.7034 -0.000614796 0.05)
(11.7836 -0.000508159 0.05)
(11.8637 -0.000407445 0.05)
(11.9439 -0.000312989 0.05)
(12.024 -0.000226268 0.05)
(12.1042 -0.000147767 0.05)
(12.1844 -7.71703e-05 0.05)
(12.2645 -1.57799e-05 0.05)
(12.3447 3.77004e-05 0.05)
(12.4248 8.30057e-05 0.05)
(12.505 0.000120813 0.05)
(12.5852 0.000151846 0.05)
(12.6653 0.000175916 0.05)
(12.7455 0.000194549 0.05)
(12.8257 0.000207668 0.05)
(12.9058 0.000216261 0.05)
(12.986 0.000220911 0.05)
(13.0661 0.00022194 0.05)
(13.1463 0.000220249 0.05)
(13.2265 0.000215973 0.05)
(13.3066 0.000209843 0.05)
(13.3868 0.000202153 0.05)
(13.4669 0.000193269 0.05)
(13.5471 0.000183568 0.05)
(13.6273 0.000173244 0.05)
(13.7074 0.000162629 0.05)
(13.7876 0.000151865 0.05)
(13.8677 0.000141162 0.05)
(13.9479 0.000130611 0.05)
(14.0281 0.000120376 0.05)
(14.1082 0.000110508 0.05)
(14.1884 0.000101085 0.05)
(14.2685 9.21595e-05 0.05)
(14.3487 8.37234e-05 0.05)
(14.4289 7.5857e-05 0.05)
(14.509 6.85055e-05 0.05)
(14.5892 6.17145e-05 0.05)
(14.6693 5.54435e-05 0.05)
(14.7495 4.96699e-05 0.05)
(14.8297 4.44076e-05 0.05)
(14.9098 3.95874e-05 0.05)
(14.99 3.52365e-05 0.05)
(15.0701 3.12826e-05 0.05)
(15.1503 2.77126e-05 0.05)
(15.2305 2.45072e-05 0.05)
(15.3106 2.16147e-05 0.05)
(15.3908 1.90495e-05 0.05)
(15.4709 1.67444e-05 0.05)
(15.5511 1.4696e-05 0.05)
(15.6313 1.28762e-05 0.05)
(15.7114 1.12568e-05 0.05)
(15.7916 9.8352e-06 0.05)
(15.8717 8.57129e-06 0.05)
(15.9519 7.46332e-06 0.05)
(16.0321 6.4866e-06 0.05)
(16.1122 5.62807e-06 0.05)
(16.1924 4.88013e-06 0.05)
(16.2725 4.22103e-06 0.05)
(16.3527 3.65025e-06 0.05)
(16.4329 3.14998e-06 0.05)
(16.513 2.71511e-06 0.05)
(16.5932 2.33843e-06 0.05)
(16.6733 2.00904e-06 0.05)
(16.7535 1.72693e-06 0.05)
(16.8337 1.48074e-06 0.05)
(16.9138 1.26892e-06 0.05)
(16.994 1.08624e-06 0.05)
(17.0741 9.27839e-07 0.05)
(17.1543 7.93078e-07 0.05)
(17.2345 6.76078e-07 0.05)
(17.3146 5.76379e-07 0.05)
(17.3948 4.90668e-07 0.05)
(17.4749 4.17019e-07 0.05)
(17.5551 3.54564e-07 0.05)
(17.6353 3.00655e-07 0.05)
(17.7154 2.55133e-07 0.05)
(17.7956 2.16089e-07 0.05)
(17.8758 1.82789e-07 0.05)
(17.9559 1.54689e-07 0.05)
(18.0361 1.30528e-07 0.05)
(18.1162 1.10303e-07 0.05)
(18.1964 9.29842e-08 0.05)
(18.2766 7.83344e-08 0.05)
(18.3567 6.59931e-08 0.05)
(18.4369 5.54342e-08 0.05)
(18.517 4.66665e-08 0.05)
(18.5972 3.91675e-08 0.05)
(18.6774 3.28745e-08 0.05)
(18.7575 2.75787e-08 0.05)
(18.8377 2.30823e-08 0.05)
(18.9178 1.93527e-08 0.05)
(18.998 1.61765e-08 0.05)
(19.0782 1.35316e-08 0.05)
(19.1583 1.1307e-08 0.05)
(19.2385 9.43232e-09 0.05)
(19.3186 7.87809e-09 0.05)
(19.3988 6.55989e-09 0.05)
(19.479 5.4704e-09 0.05)
(19.5591 4.55412e-09 0.05)
(19.6393 3.78755e-09 0.05)
(19.7194 3.1521e-09 0.05)
(19.7996 2.61519e-09 0.05)
(19.8798 2.17468e-09 0.05)
(19.9599 1.80408e-09 0.05)
(20.0401 1.49624e-09 0.05)
(20.1202 1.24098e-09 0.05)
(20.2004 1.02645e-09 0.05)
(20.2806 8.5102e-10 0.05)
(20.3607 7.03651e-10 0.05)
(20.4409 5.82098e-10 0.05)
(20.521 4.81229e-10 0.05)
(20.6012 3.97042e-10 0.05)
(20.6814 3.28152e-10 0.05)
(20.7615 2.70475e-10 0.05)
(20.8417 2.2322e-10 0.05)
(20.9218 1.83979e-10 0.05)
(21.002 1.51437e-10 0.05)
(21.0822 1.2479e-10 0.05)
(21.1623 1.0255e-10 0.05)
(21.2425 8.44427e-11 0.05)
(21.3226 6.93986e-11 0.05)
(21.4028 5.69965e-11 0.05)
(21.483 4.68361e-11 0.05)
(21.5631 3.8379e-11 0.05)
(21.6433 3.15394e-11 0.05)
(21.7234 2.58492e-11 0.05)
(21.8036 2.11888e-11 0.05)
(21.8838 1.73612e-11 0.05)
(21.9639 1.42047e-11 0.05)
(22.0441 1.16344e-11 0.05)
(22.1242 9.51378e-12 0.05)
(22.2044 7.78122e-12 0.05)
(22.2846 6.36491e-12 0.05)
(22.3647 5.18829e-12 0.05)
(22.4449 4.24571e-12 0.05)
(22.5251 3.46012e-12 0.05)
(22.6052 2.82757e-12 0.05)
(22.6854 2.30477e-12 0.05)
(22.7655 1.87861e-12 0.05)
(22.8457 1.53172e-12 0.05)
(22.9259 1.24895e-12 0.05)
)

#0  Foam::error::printStack(Foam::Ostream&) at ??:?
#1  Foam::sigSegv::sigHandler(int) at ??:?
#2  ? in "/lib/x86_64-linux-gnu/libc.so.6"
#3  Foam::interpolationCell<Foam::Vector<double> >::interpolate(Foam::Vector<double> const&, long, long) const at ??:?
#4  Foam::tmp<Foam::Field<Foam::Vector<double> > > Foam::OCWprobes::sample<Foam::Vector<double> >(Foam::GeometricField<Foam::Vector<double>, Foam::fvPatchField, Foam::volMesh> const&) const at ??:?
#5  void Foam::OCWprobes::sampleAndWrite<Foam::Vector<double> >(Foam::GeometricField<Foam::Vector<double>, Foam::fvPatchField, Foam::volMesh> const&) at ??:?
#6  void Foam::OCWprobes::sampleAndWrite<Foam::Vector<double> >(Foam::OCWprobes::fieldGroup<Foam::Vector<double> > const&) at ??:?
#7  Foam::OCWprobes::write() at ??:?
#8  Foam::waveTheories::oceanWave3D::writeToOceanWave3D() at ??:?
#9  Foam::waveTheories::oceanWave3D::step() at ??:?
#10  main at ??:?
#11  __libc_start_main in "/lib/x86_64-linux-gnu/libc.so.6"
#12  ? at ??:?
